data_lcso37c_final2
_audit_creation_date               2024-03-05
_audit_creation_method
;
Olex2 1.5
(compiled 2023.02.24 svn.rf166f9f3 for OlexSys, GUI svn.r6725)
;
_shelx_SHELXL_version_number       '2018/3'
_audit_contact_author_address      ?
_audit_contact_author_email        ?
_audit_contact_author_name         ''
_audit_contact_author_phone        ?
_publ_contact_author_id_orcid      ?
_publ_section_references
;
Dolomanov, O.V., Bourhis, L.J., Gildea, R.J, Howard, J.A.K. & Puschmann, H.
 (2009), J. Appl. Cryst. 42, 339-341.

Sheldrick, G.M. (2015). Acta Cryst. A71, 3-8.

Sheldrick, G.M. (2015). Acta Cryst. C71, 3-8.
;
_chemical_name_common              ?
_chemical_name_systematic          ?
_chemical_formula_moiety           'Co3 O12 Se4, 2(Li)'
_chemical_formula_sum              'Co3 Li2 O12 Se4'
_chemical_formula_weight           698.51
_chemical_melting_point            ?
_chemical_oxdiff_formula           'Li2 Co3 Se4 O12'
loop_
  _atom_type_symbol
  _atom_type_description
  _atom_type_scat_dispersion_real
  _atom_type_scat_dispersion_imag
  _atom_type_scat_source
 'Co' 'Co' 0.3494 0.9721 'International Tables Vol C Tables 4.2.6.8 and 6.1.1.4'
 'Li' 'Li' -0.0003 0.0001
 'International Tables Vol C Tables 4.2.6.8 and 6.1.1.4'
 'O' 'O' 0.0106 0.0060 'International Tables Vol C Tables 4.2.6.8 and 6.1.1.4'
 'Se' 'Se' -0.0929 2.2259
 'International Tables Vol C Tables 4.2.6.8 and 6.1.1.4'

_shelx_space_group_comment
;
The symmetry employed for this shelxl refinement is uniquely defined
by the following loop, which should always be used as a source of
symmetry information in preference to the above space-group names.
They are only intended as comments.
;
_space_group_crystal_system        'monoclinic'
_space_group_IT_number             14
_space_group_name_H-M_alt          'P 1 21/c 1'
_space_group_name_Hall             '-P 2ybc'
loop_
  _space_group_symop_operation_xyz
 'x, y, z'
 '-x, y+1/2, -z+1/2'
 '-x, -y, -z'
 'x, -y-1/2, z-1/2'

_cell_length_a                     8.0787(4)
_cell_length_b                     9.2356(3)
_cell_length_c                     7.7779(4)
_cell_angle_alpha                  90
_cell_angle_beta                   115.787(6)
_cell_angle_gamma                  90
_cell_volume                       522.53(5)
_cell_formula_units_Z              2
_cell_measurement_reflns_used      3939
_cell_measurement_temperature      296.5(3)
_cell_measurement_theta_max        37.7050
_cell_measurement_theta_min        2.7830
_shelx_estimated_absorpt_T_max     0.706
_shelx_estimated_absorpt_T_min     0.455
_exptl_absorpt_coefficient_mu      18.703
_exptl_absorpt_correction_T_max    0.758
_exptl_absorpt_correction_T_min    0.616
_exptl_absorpt_correction_type     gaussian
_exptl_absorpt_process_details
;
CrysAlisPro 1.171.42.55a (Rigaku Oxford Diffraction, 2022)
Numerical absorption correction based on gaussian integration over
a multifaceted crystal model
Empirical absorption correction using spherical harmonics,
implemented in SCALE3 ABSPACK scaling algorithm.
;
_exptl_absorpt_special_details     ?
_exptl_crystal_colour              purple
_exptl_crystal_density_diffrn      4.440
_exptl_crystal_density_meas        ?
_exptl_crystal_density_method      ?
_exptl_crystal_description         block
_exptl_crystal_F_000               638
loop_
  _exptl_crystal_face_index_h
  _exptl_crystal_face_index_k
  _exptl_crystal_face_index_l
  _exptl_crystal_face_perp_dist
 1 -11 -5 0.0149
 -2 11 6 0.0126
 2 12 3 0.0038
 0 -5 9 0.0193
 -5 -11 -1 0.0158
 10 -3 -8 0.0185
 -1 -12 -4 0.0138
 -9 6 1 0.0127
 0 5 -9 0.0105
 9 -7 0 0.0118

_exptl_crystal_size_max            0.05
_exptl_crystal_size_mid            0.03
_exptl_crystal_size_min            0.02
loop_
  _exptl_oxdiff_crystal_face_indexfrac_h
  _exptl_oxdiff_crystal_face_indexfrac_k
  _exptl_oxdiff_crystal_face_indexfrac_l
  _exptl_oxdiff_crystal_face_x
  _exptl_oxdiff_crystal_face_y
  _exptl_oxdiff_crystal_face_z
 1.1114 -11.3169 -5.2646 0.2044 0.8484 0.4883
 -2.3042 10.9563 5.9275 -0.1908 -0.7913 -0.5809
 1.8978 11.6182 3.3495 -0.2274 -0.9453 -0.2338
 -0.2215 -4.6717 9.3026 0.9289 -0.2228 -0.2959
 -5.4471 -10.7734 -0.6090 0.2323 0.9666 -0.1079
 10.3418 -2.5144 -8.0248 -0.0149 -0.0570 0.9983
 -0.5680 -11.5868 -4.2459 0.2184 0.9109 0.3502
 -9.2375 6.3980 0.7310 -0.6815 0.1628 -0.7134
 -0.2351 4.8663 -9.0526 -0.9403 0.2262 0.2544
 8.6280 -6.5741 0.4710 0.7540 -0.1803 0.6317

_exptl_transmission_factor_max     ?
_exptl_transmission_factor_min     ?
_diffrn_reflns_av_R_equivalents    0.0194
_diffrn_reflns_av_unetI/netI       0.0236
_diffrn_reflns_Laue_measured_fraction_full  0.998
_diffrn_reflns_Laue_measured_fraction_max  0.943
_diffrn_reflns_limit_h_max         13
_diffrn_reflns_limit_h_min         -10
_diffrn_reflns_limit_k_max         15
_diffrn_reflns_limit_k_min         -15
_diffrn_reflns_limit_l_max         11
_diffrn_reflns_limit_l_min         -13
_diffrn_reflns_number              7790
_diffrn_reflns_point_group_measured_fraction_full  0.998
_diffrn_reflns_point_group_measured_fraction_max  0.943
_diffrn_reflns_theta_full          25.242
_diffrn_reflns_theta_max           37.856
_diffrn_reflns_theta_min           2.800
_diffrn_ambient_environment        air
_diffrn_ambient_temperature        296.5(3)
_diffrn_detector                   'Hybrid Pixel Array Detector'
_diffrn_detector_area_resol_mean   10.0000
_diffrn_detector_type              HyPix
_diffrn_measured_fraction_theta_full  0.998
_diffrn_measured_fraction_theta_max  0.943
_diffrn_measurement_details
;
List of Runs (angles in degrees, time in seconds):

  # Type    Start    End  Width  t~exp~   \w     \q     \k     \f   Frames
--------------------------------------------------------------------------
  1  \w    -75.00 -22.00   0.50   60.00    --  -32.29 105.00 -82.00  106
  2  \w     -3.00  81.00   0.50   60.00    --   33.54-105.00 177.00  168
  3  \w    -51.00   5.00   0.50   60.00    --   33.54 -19.00 -90.00  112
  4  \w    -51.00   5.00   0.50   60.00    --   33.54 -19.00-150.00  112
  5  \w    -50.00  -3.00   0.50   60.00    --   33.54 -19.00  90.00   94
  6  \w     62.00 102.00   0.50   60.00    --   33.54 178.00-150.00   80
  7  \w    -22.00  20.00   0.50   60.00    --   33.54 -37.00-150.00   84
  8  \w    -46.00 -21.00   0.50   60.00    --   33.54 -19.00 -60.00   50
  9  \w    -29.00  -4.00   0.50   60.00    --   33.54 -37.00  60.00   50
;
_diffrn_measurement_device         'four-circle diffractometer'
_diffrn_measurement_device_type   
 'XtaLAB Synergy, Single source at offset/far, HyPix'
_diffrn_measurement_method         '\w scans'
_diffrn_orient_matrix_type        
 'CrysAlisPro convention (1999,Acta A55,543-557)'
_diffrn_orient_matrix_UB_11        0.0458405000
_diffrn_orient_matrix_UB_12        -0.0490568000
_diffrn_orient_matrix_UB_13        0.0763057000
_diffrn_orient_matrix_UB_21        -0.0606676000
_diffrn_orient_matrix_UB_22        -0.0560242000
_diffrn_orient_matrix_UB_23        -0.0535267000
_diffrn_orient_matrix_UB_31        0.0611628000
_diffrn_orient_matrix_UB_32        -0.0186622000
_diffrn_orient_matrix_UB_33        -0.0397274000
_diffrn_radiation_monochromator    mirror
_diffrn_radiation_probe            x-ray
_diffrn_radiation_type             'Mo K\a'
_diffrn_radiation_wavelength       0.71073
_diffrn_source                     'micro-focus sealed X-ray tube'
_diffrn_source_type                'PhotonJet (Mo) X-ray Source'
_reflns_Friedel_coverage           0.000
_reflns_Friedel_fraction_full      .
_reflns_Friedel_fraction_max       .
_reflns_number_gt                  2286
_reflns_number_total               2653
_reflns_special_details
;
 Reflections were merged by SHELXL according to the crystal
 class for the calculation of statistics and refinement.
 
 _reflns_Friedel_fraction is defined as the number of unique
 Friedel pairs measured divided by the number that would be
 possible theoretically, ignoring centric projections and
 systematic absences.
;
_reflns_threshold_expression       'I > 2\s(I)'
_computing_cell_refinement         'CrysAlisPro 1.171.42.55a (Rigaku OD, 2022)'
_computing_data_collection         'CrysAlisPro 1.171.42.55a (Rigaku OD, 2022)'
_computing_data_reduction          'CrysAlisPro 1.171.42.55a (Rigaku OD, 2022)'
_computing_molecular_graphics      'Olex2 1.5 (Dolomanov et al., 2009)'
_computing_publication_material    'Olex2 1.5 (Dolomanov et al., 2009)'
_computing_structure_refinement    'SHELXL 2018/3 (Sheldrick, 2015)'
_computing_structure_solution      'SHELXT 2018/2 (Sheldrick, 2018)'
_refine_diff_density_max           0.696
_refine_diff_density_min           -0.595
_refine_diff_density_rms           0.147
_refine_ls_extinction_coef         .
_refine_ls_extinction_method       none
_refine_ls_goodness_of_fit_ref     1.050
_refine_ls_hydrogen_treatment      undef
_refine_ls_matrix_type             full
_refine_ls_number_parameters       97
_refine_ls_number_reflns           2653
_refine_ls_number_restraints       0
_refine_ls_R_factor_all            0.0268
_refine_ls_R_factor_gt             0.0192
_refine_ls_restrained_S_all        1.050
_refine_ls_shift/su_max            0.001
_refine_ls_shift/su_mean           0.000
_refine_ls_structure_factor_coef   Fsqd
_refine_ls_weighting_details      
 'w=1/[\s^2^(Fo^2^)+(0.0145P)^2^+0.3205P] where P=(Fo^2^+2Fc^2^)/3'
_refine_ls_weighting_scheme        calc
_refine_ls_wR_factor_gt            0.0383
_refine_ls_wR_factor_ref           0.0396
_refine_special_details            ?
_olex2_refinement_description
;
;
_atom_sites_solution_hydrogens     .
_atom_sites_solution_primary       dual
_atom_sites_solution_secondary     ?
loop_
  _atom_site_label
  _atom_site_type_symbol
  _atom_site_fract_x
  _atom_site_fract_y
  _atom_site_fract_z
  _atom_site_U_iso_or_equiv
  _atom_site_adp_type
  _atom_site_occupancy
  _atom_site_site_symmetry_order
  _atom_site_calc_flag
  _atom_site_refinement_flags_posn
  _atom_site_refinement_flags_adp
  _atom_site_refinement_flags_occupancy
  _atom_site_disorder_assembly
  _atom_site_disorder_group
 Se1 Se 0.09380(2) 0.82750(2) 0.73674(2) 0.00793(4) Uani 1 1 d . . . . .
 Se2 Se 0.32619(2) 0.18360(2) 0.62143(2) 0.00776(4) Uani 1 1 d . . . . .
 Co1 Co 0.500000 1.000000 1.000000 0.00784(6) Uani 1 2 d S . P . .
 Co2 Co 0.21045(3) 0.50931(2) 0.67608(3) 0.00922(4) Uani 1 1 d . . . . .
 O2 O 0.28376(17) 0.91786(14) 0.76217(18) 0.0114(2) Uani 1 1 d . . . . .
 O3 O 0.17647(18) 0.66460(13) 0.83817(19) 0.0118(2) Uani 1 1 d . . . . .
 O1 O 0.04236(17) 0.90133(14) 0.90821(18) 0.0112(2) Uani 1 1 d . . . . .
 O4 O 0.33834(18) 0.36527(13) 0.57722(19) 0.0111(2) Uani 1 1 d . . . . .
 O5 O 0.53638(17) 0.14958(13) 0.80969(17) 0.0107(2) Uani 1 1 d . . . . .
 O6 O 0.35905(18) 0.10659(15) 0.44327(19) 0.0141(2) Uani 1 1 d . . . . .
 Li1 Li 0.3978(4) 0.6415(3) 1.0809(4) 0.0084(5) Uani 1 1 d . . . . .

loop_
  _atom_site_aniso_label
  _atom_site_aniso_U_11
  _atom_site_aniso_U_22
  _atom_site_aniso_U_33
  _atom_site_aniso_U_23
  _atom_site_aniso_U_13
  _atom_site_aniso_U_12
 Se1 0.00748(7) 0.00842(7) 0.00691(7) -0.00126(5) 0.00222(5) 0.00043(5)
 Se2 0.00801(7) 0.00656(6) 0.00800(7) 0.00059(5) 0.00281(5) -0.00020(5)
 Co1 0.00918(13) 0.00782(12) 0.00704(12) -0.00021(10) 0.00402(10) -0.00016(10)
 Co2 0.01138(9) 0.00771(9) 0.00940(9) -0.00001(7) 0.00528(8) 0.00148(7)
 O2 0.0118(5) 0.0123(5) 0.0109(5) -0.0016(4) 0.0056(4) -0.0033(4)
 O3 0.0162(6) 0.0081(5) 0.0117(5) -0.0002(4) 0.0067(5) 0.0015(4)
 O1 0.0109(5) 0.0127(5) 0.0108(5) -0.0036(4) 0.0054(4) 0.0017(4)
 O4 0.0133(5) 0.0073(5) 0.0157(6) 0.0022(4) 0.0092(5) 0.0014(4)
 O5 0.0101(5) 0.0116(5) 0.0081(5) 0.0026(4) 0.0019(4) 0.0006(4)
 O6 0.0145(6) 0.0159(6) 0.0109(5) -0.0057(4) 0.0045(5) -0.0008(5)
 Li1 0.0070(12) 0.0107(12) 0.0090(12) 0.0026(10) 0.0049(10) -0.0002(10)

_geom_special_details
;
 All esds (except the esd in the dihedral angle between two l.s. planes)
 are estimated using the full covariance matrix.  The cell esds are taken
 into account individually in the estimation of esds in distances, angles
 and torsion angles; correlations between esds in cell parameters are only
 used when they are defined by crystal symmetry.  An approximate (isotropic)
 treatment of cell esds is used for estimating esds involving l.s. planes.
;
loop_
  _geom_bond_atom_site_label_1
  _geom_bond_atom_site_label_2
  _geom_bond_distance
  _geom_bond_site_symmetry_2
  _geom_bond_publ_flag
 Se1 O2 1.6813(12) . ?
 Se1 O3 1.6951(12) . ?
 Se1 O1 1.7025(11) . ?
 Se2 O4 1.7241(12) . ?
 Se2 O5 1.7213(13) . ?
 Se2 O6 1.6782(12) . ?
 Co1 O2 2.0585(13) . ?
 Co1 O2 2.0585(13) 3_677 ?
 Co1 O4 2.0729(12) 2_656 ?
 Co1 O4 2.0729(12) 4_576 ?
 Co1 O5 2.1364(12) 3_667 ?
 Co1 O5 2.1364(12) 1_565 ?
 Co2 O3 2.0057(12) . ?
 Co2 O1 2.0987(13) 4_575 ?
 Co2 O1 2.1050(12) 2_546 ?
 Co2 O4 2.0297(12) . ?
 Co2 O5 2.3826(13) 2_656 ?
 Co2 O6 2.1760(13) 4_566 ?

loop_
  _geom_angle_atom_site_label_1
  _geom_angle_atom_site_label_2
  _geom_angle_atom_site_label_3
  _geom_angle
  _geom_angle_site_symmetry_1
  _geom_angle_site_symmetry_3
  _geom_angle_publ_flag
 O2 Se1 O3 103.37(6) . . ?
 O2 Se1 O1 103.32(6) . . ?
 O3 Se1 O1 99.90(6) . . ?
 O5 Se2 O4 103.10(6) . . ?
 O6 Se2 O4 101.81(6) . . ?
 O6 Se2 O5 99.98(6) . . ?
 O2 Co1 O2 180.0 3_677 . ?
 O2 Co1 O4 85.05(5) 3_677 4_576 ?
 O2 Co1 O4 94.95(5) 3_677 2_656 ?
 O2 Co1 O4 94.95(5) . 4_576 ?
 O2 Co1 O4 85.05(5) . 2_656 ?
 O2 Co1 O5 86.24(5) 3_677 3_667 ?
 O2 Co1 O5 93.76(5) . 3_667 ?
 O2 Co1 O5 93.76(5) 3_677 1_565 ?
 O2 Co1 O5 86.24(5) . 1_565 ?
 O4 Co1 O4 180.0 4_576 2_656 ?
 O4 Co1 O5 96.11(5) 4_576 1_565 ?
 O4 Co1 O5 83.89(5) 4_576 3_667 ?
 O4 Co1 O5 96.11(5) 2_656 3_667 ?
 O4 Co1 O5 83.89(5) 2_656 1_565 ?
 O5 Co1 O5 180.0 3_667 1_565 ?
 O3 Co2 O1 97.84(5) . 4_575 ?
 O3 Co2 O1 98.91(5) . 2_546 ?
 O3 Co2 O4 159.75(6) . . ?
 O3 Co2 O5 86.07(5) . 2_656 ?
 O3 Co2 O6 85.47(5) . 4_566 ?
 O1 Co2 O1 75.88(5) 4_575 2_546 ?
 O1 Co2 O5 165.71(5) 2_546 2_656 ?
 O1 Co2 O5 90.23(4) 4_575 2_656 ?
 O1 Co2 O6 97.00(5) 2_546 4_566 ?
 O1 Co2 O6 172.49(5) 4_575 4_566 ?
 O4 Co2 O1 95.61(5) . 4_575 ?
 O4 Co2 O1 98.99(5) . 2_546 ?
 O4 Co2 O5 78.80(5) . 2_656 ?
 O4 Co2 O6 83.06(5) . 4_566 ?
 O6 Co2 O5 96.74(5) 4_566 2_656 ?
 Se1 O2 Co1 131.53(7) . . ?
 Se1 O3 Co2 118.43(7) . . ?
 Se1 O1 Co2 131.47(7) . 4_576 ?
 Se1 O1 Co2 118.70(7) . 2_556 ?
 Co2 O1 Co2 104.12(5) 4_576 2_556 ?
 Se2 O4 Co1 137.70(7) . 2_646 ?
 Se2 O4 Co2 118.67(6) . . ?
 Co2 O4 Co1 101.83(5) . 2_646 ?
 Se2 O5 Co1 108.98(6) . 1_545 ?
 Se2 O5 Co2 130.39(7) . 2_646 ?
 Co1 O5 Co2 89.44(4) 1_545 2_646 ?
 Se2 O6 Co2 141.02(8) . 4_565 ?

loop_
  _geom_torsion_atom_site_label_1
  _geom_torsion_atom_site_label_2
  _geom_torsion_atom_site_label_3
  _geom_torsion_atom_site_label_4
  _geom_torsion
  _geom_torsion_site_symmetry_1
  _geom_torsion_site_symmetry_2
  _geom_torsion_site_symmetry_3
  _geom_torsion_site_symmetry_4
  _geom_torsion_publ_flag
 O2 Se1 O3 Co2 -86.74(8) . . . . ?
 O2 Se1 O1 Co2 118.19(8) . . . 2_556 ?
 O2 Se1 O1 Co2 -30.57(10) . . . 4_576 ?
 O3 Se1 O2 Co1 -69.68(10) . . . . ?
 O3 Se1 O1 Co2 75.83(10) . . . 4_576 ?
 O3 Se1 O1 Co2 -135.41(7) . . . 2_556 ?
 O1 Se1 O2 Co1 34.08(11) . . . . ?
 O1 Se1 O3 Co2 166.89(7) . . . . ?
 O4 Se2 O5 Co1 142.50(6) . . . 1_545 ?
 O4 Se2 O5 Co2 -111.29(8) . . . 2_646 ?
 O4 Se2 O6 Co2 -107.47(12) . . . 4_565 ?
 O5 Se2 O4 Co1 60.35(12) . . . 2_646 ?
 O5 Se2 O4 Co2 -101.13(8) . . . . ?
 O5 Se2 O6 Co2 146.76(12) . . . 4_565 ?
 O6 Se2 O4 Co1 -42.96(12) . . . 2_646 ?
 O6 Se2 O4 Co2 155.55(8) . . . . ?
 O6 Se2 O5 Co1 -112.77(7) . . . 1_545 ?
 O6 Se2 O5 Co2 -6.57(10) . . . 2_646 ?

_shelx_res_file
;
TITL lcso37c_final2_a.res in P2(1)/c
    lcso37c_final2.res
    created by SHELXL-2018/3 at 11:15:09 on 05-Mar-2024
REM Old TITL LCSO37c_final2 in P2(1)/c
REM SHELXT solution in P2(1)/c: R1 0.049, Rweak 0.002, Alpha 0.025
REM <I/s> 0.836 for 77 systematic absences, Orientation as input
REM Formula found by SHELXT: O12 Co3 Se4
CELL 0.71073 8.0787 9.2356 7.7779 90 115.787 90
ZERR 2 0.0004 0.0003 0.0004 0 0.006 0
LATT 1
SYMM -X,0.5+Y,0.5-Z
SFAC Co Li O Se
UNIT 6 4 24 8

L.S. 4
PLAN  3
SIZE 0.02 0.03 0.05
TEMP 23
CONF
CONN 0 Li1
list 4
fmap 2
MORE -1
ACTA
OMIT 0 4 0
REM <olex2.extras>
REM <HklSrc "%.\\LCSO37c_final2.hkl">
REM </olex2.extras>

WGHT    0.014500    0.320500
FVAR       0.33261
SE1   4    0.093801    0.827497    0.736743    11.00000    0.00748    0.00842 =
         0.00691   -0.00126    0.00222    0.00043
SE2   4    0.326194    0.183599    0.621426    11.00000    0.00801    0.00656 =
         0.00800    0.00059    0.00281   -0.00020
CO1   1    0.500000    1.000000    1.000000    10.50000    0.00918    0.00782 =
         0.00704   -0.00021    0.00402   -0.00016
CO2   1    0.210454    0.509314    0.676082    11.00000    0.01138    0.00771 =
         0.00940   -0.00001    0.00528    0.00148
O2    3    0.283760    0.917863    0.762167    11.00000    0.01177    0.01227 =
         0.01093   -0.00157    0.00556   -0.00328
O3    3    0.176470    0.664601    0.838172    11.00000    0.01618    0.00812 =
         0.01171   -0.00021    0.00671    0.00149
O1    3    0.042365    0.901333    0.908209    11.00000    0.01087    0.01266 =
         0.01078   -0.00359    0.00537    0.00174
O4    3    0.338344    0.365275    0.577225    11.00000    0.01327    0.00729 =
         0.01573    0.00224    0.00917    0.00139
O5    3    0.536377    0.149583    0.809690    11.00000    0.01014    0.01156 =
         0.00815    0.00262    0.00186    0.00062
O6    3    0.359048    0.106592    0.443267    11.00000    0.01452    0.01591 =
         0.01090   -0.00572    0.00452   -0.00076
LI1   2    0.397832    0.641479    1.080882    11.00000    0.00697    0.01068 =
         0.00899    0.00263    0.00493   -0.00022
HKLF 4




REM  lcso37c_final2_a.res in P2(1)/c
REM wR2 = 0.0396, GooF = S = 1.050, Restrained GooF = 1.050 for all data
REM R1 = 0.0192 for 2286 Fo > 4sig(Fo) and 0.0268 for all 2653 data
REM 97 parameters refined using 0 restraints

END

WGHT      0.0145      0.3206

REM Highest difference peak  0.696,  deepest hole -0.595,  1-sigma level  0.147
Q1    1   0.3463  0.1387  0.5367  11.00000  0.05    0.64
Q2    1   0.2624  0.8576  0.7604  11.00000  0.05    0.58
Q3    1   0.4156  0.4345  0.5572  11.00000  0.05    0.56
;
_shelx_res_checksum                91767
_shelx_hkl_file
;
   0   0   1    0.39    0.38
   0   0  -1    0.38    0.35
   0   0   1    0.27    0.33
   0   0   2 1748.53   30.85
   0   0   3    0.99    0.83
   0   0   4    1.71    1.00
   0   0   4    0.81    1.02
   0   0   5    1.65    1.30
   0   0   5    0.59    1.28
   0   0   6   40.36    2.56
   0   0   6   45.51    2.63
   0   0   7    1.79    2.02
   0   0   7    1.04    2.06
   0   0   8  493.37   11.68
   0   0   8  494.50   11.91
   0   0  -8  502.73   13.54
   0   0   9    3.23    3.06
   0   0  -9    5.54    3.99
   0   0 -10   -1.25    4.73
   0   0  10    2.84    3.64
   0   0 -11    0.92    5.78
   0   1   1  446.80    8.52
   0   1   1  471.03    8.33
   0  -1  -1  464.43    8.31
   0  -1  -1  466.56    8.57
   0   1   1  473.21    8.43
   0  -1   2 1252.81   22.09
   0   1   2 1213.07   21.99
   0   1   3   20.69    1.22
   0  -1   3   23.20    1.33
   0  -1   3   25.48    1.40
   0  -1   4  177.07    4.55
   0  -1   4  181.85    4.63
   0   1   4  184.55    4.51
   0  -1   5  727.90   14.41
   0  -1  -5  706.43   14.69
   0  -1   5  731.66   14.49
   0   1   5  715.55   14.27
   0  -1   6 1209.44   23.15
   0  -1   6 1186.20   22.97
   0  -1  -6 1155.57   23.37
   0   1   6 1211.15   22.94
   0  -1   7   42.03    3.05
   0   1   7   37.41    3.01
   0  -1  -7   44.00    3.20
   0   1   7   38.97    2.85
   0   1  -8   38.55    4.29
   0  -1   8   36.26    3.34
   0   1   8   27.16    3.14
   0   1   8   37.70    3.20
   0   1   9   96.09    5.07
   0   1   9  107.30    5.04
   0   1  -9   99.02    6.30
   0   1 -10    8.32    5.21
   0   1  10    4.39    3.56
   0   1 -11  363.28   13.17
   0   1  11  338.56   10.57
   0   2   1  252.05    4.95
   0   2   1  246.67    4.82
   0  -2  -2  304.23    6.31
   0   2   3  722.18   13.66
   0   2   4  163.41    4.21
   0  -2  -4  152.32    4.30
   0   2   5 2336.85   41.97
   0  -2  -5 2292.69   42.29
   0  -2   5 2308.66   42.13
   0  -2  -6 1028.24   21.02
   0   2   6 1072.31   20.56
   0   2   7  122.12    4.53
   0  -2  -7  114.74    4.84
   0   2  -8  435.21   12.17
   0   2   8  420.59   10.70
   0   2   8  446.62   10.59
   0  -2  -8  419.94   11.19
   0  -2  -8  397.91   11.90
   0   2   9    7.01    3.04
   0   2   9    7.99    3.16
   0   2  -9    7.15    4.22
   0  -2  -9   11.22    4.30
   0   2  10   69.36    5.14
   0  -2 -10   71.54    6.52
   0   2 -10   61.02    6.26
   0   2 -11  202.29   10.24
   0  -2 -11  211.23   10.28
   0  -3   0    0.74    0.62
   0   3  -1 2936.79   50.94
   0   3   1 2950.10   51.63
   0   3   2   91.10    2.36
   0  -3  -2   93.92    2.80
   0   3   2   96.84    2.60
   0  -3  -3 1460.26   26.94
   0  -3  -3 1478.06   27.07
   0  -3  -4    7.05    1.35
   0   3   4    7.10    1.28
   0  -3  -5  176.93    5.25
   0   3   5  186.91    5.10
   0  -3  -6   21.26    2.37
   0   3   6   24.82    2.29
   0   3   7  132.91    4.82
   0   3  -7  136.90    5.81
   0  -3  -7  129.45    5.25
   0  -3  -8   30.93    3.61
   0   3   8   28.03    3.12
   0  -3  -8   21.73    3.83
   0   3  -8   25.24    3.83
   0   3   9  288.43    8.78
   0  -3  -9  284.53   10.20
   0   3  -9  284.24   10.07
   0  -3  -9  290.65    9.40
   0   3   9  277.24    8.43
   0  -3 -10   -2.42    4.96
   0   3 -10   -3.55    5.06
   0   3  10   -1.86    3.69
   0  -3 -11   29.30    6.50
   0   3 -11   22.93    6.32
   0  -3 -11   13.81    6.25
   0  -4   0  119.62    2.90
   0   4   1   12.63    1.18
   0   4  -1   12.51    0.66
   0  -4  -1   12.55    0.71
   0   4   2   48.24    1.96
   0   4   2   45.22    1.72
   0   4  -2   45.40    1.13
   0  -4  -3 2093.44   39.10
   0   4   3 2161.42   38.23
   0   4   3 2183.49   38.63
   0  -4  -4    1.68    1.35
   0  -4  -5 1034.31   20.62
   0   4   5 1049.55   20.33
   0   4   6 1118.49   21.73
   0  -4  -6 1068.99   22.07
   0   4  -6 1118.81   22.50
   0  -4  -7    6.37    2.46
   0   4  -7    5.90    2.88
   0  -4  -7    1.28    2.78
   0   4   7    6.11    2.32
   0  -4  -8   16.14    3.28
   0   4  -8   22.85    3.93
   0  -4  -8   22.68    4.13
   0   4   8   22.14    3.05
   0   4   9   -1.12    3.09
   0   4  -9    0.67    4.14
   0  -4  -9    0.29    3.52
   0  -4  -9    3.49    4.26
   0   4 -10   53.68    6.14
   0  -4 -10   51.27    6.19
   0   4  10   47.45    4.75
   0  -4 -11  211.32   10.77
   0   4 -11  222.12   10.10
   0  -4 -11  184.45    9.82
   0  -5   0    2.20    0.93
   0   5   0    0.20    1.05
   0  -5  -1    5.11    0.55
   0   5   1    3.49    1.15
   0   5  -1    3.77    0.44
   0  -5   1    3.76    0.50
   0   5   1    3.65    0.46
   0   5   2  296.97    6.32
   0  -5  -2  289.94    5.96
   0   5  -2  289.06    5.88
   0   5   2  280.22    6.53
   0   5   3  281.32    5.81
   0   5   3  275.60    6.15
   0   5  -3  270.95    5.88
   0   5  -4   23.14    2.01
   0  -5  -4   23.42    2.09
   0   5   5  906.70   18.55
   0  -5  -5  926.25   18.90
   0   5  -5  954.53   18.77
   0  -5  -6  341.42    9.18
   0   5  -6  353.98    9.08
   0  -5  -6  326.52    8.83
   0   5   6  343.79    8.64
   0  -5  -7   26.98    3.71
   0   5  -7   26.61    3.49
   0   5   7   32.04    3.08
   0  -5  -7   28.56    3.25
   0  -5  -8   95.97    5.23
   0   5   8   98.57    4.78
   0   5  -8   92.48    5.57
   0  -5  -8   95.18    5.75
   0  -5  -9  392.15   12.05
   0  -5  -9  369.09   11.32
   0   5  -9  409.71   12.09
   0   5   9  395.56   10.62
   0  -5 -10   20.83    4.62
   0   5 -10   12.26    5.26
   0   5  10   15.00    4.36
   0  -5 -10   25.65    5.72
   0  -5 -11  320.89   12.07
   0  -5 -11  293.96   12.80
   0   5 -11  318.29   11.74
   0   6   0 6531.73  114.99
   0  -6   0 6549.56  114.10
   0  -6  -1  205.26    5.25
   0   6   1  201.52    5.31
   0   6   2  767.08   14.79
   0  -6  -2  753.54   13.96
   0   6  -2  762.79   13.86
   0   6   2  752.32   15.07
   0   6   3  669.17   13.45
   0   6  -3  652.76   12.75
   0  -6  -3  651.55   12.83
   0   6   3  670.95   13.01
   0   6  -4    8.61    1.74
   0  -6  -4    9.57    1.84
   0   6   4    7.10    1.80
   0   6   4    8.87    1.60
   0   6  -5  118.23    4.35
   0  -6  -5  119.44    4.46
   0  -6  -5  107.49    4.48
   0   6  -6   40.38    3.28
   0   6   6   32.60    2.95
   0  -6  -6   36.06    3.24
   0  -6  -6   42.89    3.38
   0  -6  -7    9.61    2.88
   0  -6  -7    7.72    3.35
   0   6   7   16.00    3.03
   0   6  -7    3.85    2.96
   0   6   8  312.80    9.03
   0  -6  -8  305.48    9.54
   0   6  -8  300.47    9.50
   0  -6  -8  305.26    9.76
   0  -6  -9    3.41    4.05
   0   6   9   -0.97    3.39
   0   6  -9    3.07    4.22
   0  -6  -9    0.98    4.53
   0   6 -10    2.03    4.87
   0  -6 -10    2.70    4.44
   0  -6 -10   -2.94    6.04
   0  -6 -10    4.71    5.29
   0   6 -11   13.34    5.75
   0  -6 -11   13.91    6.12
   0  -7   0    0.34    1.25
   0   7   0    1.77    1.49
   0  -7  -1  444.38    9.70
   0   7   1  444.40    9.96
   0   7   2  197.38    5.63
   0   7   2  204.42    5.36
   0  -7  -2  201.02    4.17
   0   7  -2  198.80    3.99
   0  -7  -3   55.91    2.29
   0   7   3   60.08    3.06
   0   7   3   55.60    2.63
   0   7  -3   58.58    2.21
   0   7  -4  186.41    4.97
   0   7   4  181.35    4.98
   0   7   4  180.07    5.49
   0  -7  -4  187.91    5.10
   0  -7  -5  132.54    4.68
   0   7  -5  138.24    4.65
   0  -7  -5  135.52    5.23
   0  -7  -6  653.77   15.27
   0   7  -6  686.54   14.60
   0   7   6  661.11   14.90
   0  -7  -6  652.16   14.62
   0  -7  -7  103.63    5.32
   0  -7  -7  104.81    5.34
   0   7  -7  104.69    5.19
   0   7   7   99.28    4.99
   0   7   8   57.75    4.51
   0  -7  -8   59.82    4.93
   0   7  -8   56.31    4.79
   0  -7  -8   53.80    4.92
   0  -7  -9    7.41    4.56
   0   7  -9    5.42    4.30
   0  -7 -10   15.27    5.27
   0  -7 -10   21.21    5.19
   0  -7 -10   22.60    6.61
   0  -8   0  140.20    4.02
   0   8   0  142.95    4.90
   0  -8  -1   11.59    2.00
   0   8   1   11.62    2.05
   0   8   2  363.37    8.58
   0  -8  -2  375.24    8.98
   0   8   2  350.64    8.80
   0   8   3  214.12    6.29
   0   8   3  214.17    5.89
   0  -8  -3  226.43    4.98
   0  -8  -3  227.33    6.91
   0   8   4   62.40    3.44
   0   8   4   58.12    2.91
   0  -8  -4   52.94    2.63
   0  -8  -5  282.98    7.19
   0  -8  -5  270.44    8.18
   0   8   6  592.60   13.99
   0  -8  -6  594.87   13.25
   0  -8  -6  590.46   14.41
   0  -8  -7  124.25    5.65
   0   8   7  126.08    5.80
   0  -8  -7  146.97    6.42
   0  -8  -8  647.78   15.17
   0   8   8  623.30   15.09
   0  -8  -8  622.64   17.42
   0  -8  -8  593.36   15.58
   0  -8  -9   32.15    5.08
   0  -8  -9   44.06    5.46
   0  -8 -10   69.57    6.51
   0  -8 -10   60.20    6.30
   0  -9   0    4.52    1.77
   0   9   0    2.35    2.08
   0   9   1  599.71   13.56
   0  -9  -1  619.53   12.90
   0   9  -1  600.41   13.87
   0   9   2  525.85   12.15
   0   9   2  510.06   11.66
   0  -9  -2  534.82   12.04
   0   9   3  360.70    9.09
   0  -9  -3  339.25    9.56
   0   9   3  346.95    8.54
   0  -9  -3  350.93    9.45
   0   9   4   32.43    2.82
   0  -9  -4   42.21    3.94
   0   9   4   35.59    3.26
   0  -9  -5  103.22    5.73
   0  -9  -5   95.95    5.03
   0  -9  -6  128.90    5.01
   0  -9  -6  145.33    7.19
   0  -9  -6  121.71    6.19
   0  -9  -7   18.48    4.03
   0   9   7   14.83    3.83
   0  -9  -7   12.14    4.70
   0   9   8    2.21    3.84
   0  -9  -8   10.08    5.63
   0  -9  -8    7.18    4.17
   0  -9  -9  131.66    8.87
   0  -9  -9  123.72    7.29
   0  10   0  554.93   13.15
   0 -10   0  547.64   11.35
   0  10  -1  135.45    5.69
   0 -10  -1  147.90    4.90
   0  10   1  140.40    5.59
   0  10  -2   36.08    3.65
   0  10   2   26.69    3.12
   0 -10  -2   25.46    3.11
   0  10   2   30.96    3.05
   0 -10  -3 1095.89   23.52
   0  10   3 1116.23   21.95
   0  10   3 1050.85   22.48
   0 -10  -3 1139.66   22.94
   0  10   4   41.91    3.69
   0 -10  -4   42.82    4.05
   0 -10  -4   44.91    4.33
   0 -10  -5  354.81   10.73
   0 -10  -5  344.69   10.53
   0 -10  -5  321.78    9.92
   0 -10  -6   85.78    5.49
   0 -10  -6   79.48    6.11
   0 -10  -7   11.51    5.31
   0 -10  -7   10.23    4.24
   0  10   7   -1.70    3.78
   0 -10  -8   26.56    5.05
   0  10   8   27.88    4.70
   0 -10  -8   23.88    6.19
   0 -10  -9    4.82    4.86
   0  11   0    6.20    3.04
   0 -11  -1   24.40    2.87
   0  11   1   19.62    3.45
   0  11  -1   22.36    3.58
   0  11   1   21.31    3.34
   0  11  -2    9.49    3.46
   0  11   2    6.59    3.04
   0 -11  -2    5.97    3.01
   0  11   2    8.71    2.84
   0 -11  -3  104.62    5.32
   0  11   3  103.16    4.73
   0 -11  -3  107.53    5.73
   0  11   3  104.86    5.31
   0 -11  -4    5.20    3.55
   0 -11  -4    5.10    3.35
   0  11   4    8.39    3.40
   0 -11  -5  261.03    9.23
   0 -11  -5  227.80    8.81
   0 -11  -5  221.28    8.28
   0 -11  -6    6.15    4.07
   0 -11  -6   -0.36    4.69
   0 -11  -7   12.59    5.55
   0  11   7    6.31    4.26
   0 -11  -7   11.32    4.60
   0 -11  -8   64.66    5.96
   0 -11  -8   63.62    7.57
   0  12   0 1097.19   23.57
   0  12   1   69.63    4.95
   0  12   1   63.17    4.41
   0  12  -1   60.14    4.90
   0  12  -2  215.99    8.28
   0 -12  -2  226.39    8.60
   0  12   2  223.27    7.36
   0  12   2  218.80    7.76
   0  12   3  197.85    7.38
   0 -12  -3  193.62    8.09
   0 -12  -3  199.47    7.32
   0  12  -3  214.39    8.49
   0  12   4  107.05    5.77
   0 -12  -4  109.90    6.50
   0 -12  -4  100.10    5.95
   0  12  -4   96.76    6.32
   0 -12  -5  228.54    8.69
   0 -12  -5  238.33    9.31
   0 -12  -5  226.52    8.86
   0 -12  -6    4.33    5.05
   0 -12  -6   -1.29    4.31
   0  12   7    0.63    4.61
   0 -12  -7   -3.20    5.66
   0 -12  -7   -1.34    4.78
   0  13   0    5.92    4.00
   0  13  -1  234.43    8.75
   0  13   1  229.65    8.05
   0  13   1  227.89    8.44
   0  13  -2    9.72    4.24
   0  13   2    8.08    3.57
   0 -13  -2   13.04    4.46
   0  13   2    9.07    4.09
   0  13   3   61.78    5.12
   0 -13  -3   64.02    5.66
   0  13  -3   74.18    6.06
   0  13  -4   54.22    5.98
   0 -13  -4   56.55    5.50
   0  13   4   63.58    5.31
   0  13  -5    7.15    5.03
   0 -13  -5    6.47    4.67
   0 -13  -5    7.04    4.97
   0 -13  -5    2.67    4.83
   0 -13  -6  200.13    8.77
   0 -13  -6  187.84    9.00
   0  14   0  103.03    6.14
   0  14   0  103.56    6.54
   0  14  -1    1.32    4.59
   0  14   1   10.46    4.23
   0  14   1    9.56    4.56
   0 -14  -2   71.18    6.30
   0  14   2   78.30    5.95
   0  14  -2   62.44    6.11
   0  14   3   -1.15    4.44
   0  14  -3    8.98    5.10
   0 -14  -3   11.38    4.69
   0  14  -4   23.25    5.85
   0 -14  -4   23.26    5.49
   0 -14  -5   43.79    5.80
   0  15   0    3.68    4.85
   0  15   0   -4.22    4.60
   0  15  -1   61.54    5.89
   0  15   1   67.93    6.13
   0  15  -1   66.03    6.39
   0 -15  -1   63.55    6.57
   0  15  -2  190.10    9.10
   0  15   2  206.80    8.70
   0 -15  -2  214.82    9.47
   1   0 -12  113.04    8.77
   1   0 -11    1.92    5.05
   1   0 -11   -3.11    5.32
   1   0 -10   32.29    5.46
   1   0 -10   48.28    5.47
  -1   0   9    1.20    2.63
   1   0  -9   -0.70    3.56
  -1   0   8   39.41    3.10
   1   0  -8   40.64    4.08
   1   0  -7   -2.23    2.26
  -1   0   7   -0.13    1.74
  -1   0   7   -0.43    1.77
  -1   0   6  945.96   18.37
   1   0  -6  927.59   19.57
  -1   0   6  954.57   18.20
  -1   0   5    0.08    1.05
   1   0  -5    1.28    1.46
  -1   0   5    1.01    1.16
   1   0  -4    6.00    1.38
  -1   0   4    7.95    1.05
  -1   0   4    8.95    1.00
   1   0  -3    0.17    1.01
  -1   0   3   -0.08    0.59
  -1   0   2   26.40    0.81
   1   0  -2   27.11    1.28
   1   0  -2   26.06    0.81
   1   0  -1    0.41    0.47
   1   0  -1   -0.23    0.46
  -1   0   1    0.03    0.44
  -1   0   1    0.26    0.48
   1   0  -1   -0.12    0.44
  -1   0   0   35.19    0.89
  -1   0   0   38.07    0.98
  -1   0  -1    0.04    0.57
   1   0   1    0.49    0.56
   1   0   2 9983.22  173.31
  -1   0  -2 9999.00  173.36
  -1   0  -3    0.65    0.93
   1   0   3    0.43    0.86
   1   0   4 1436.93   26.32
   1   0   4 1388.57   26.20
  -1   0  -4 1399.15   26.39
   1   0   5    1.15    1.50
   1   0   5    0.14    1.47
  -1   0  -5    3.13    1.48
   1   0   6   84.39    3.73
  -1   0  -6   84.26    3.98
   1   0   6   84.14    3.80
   1   0   7    1.02    2.30
   1   0   7    0.19    2.20
   1   0   8   15.19    3.18
   1   0   8   10.38    3.00
  -1   0  -9   -0.39    4.44
   1   0   9    0.26    3.32
   1   0  10  355.73   10.90
  -1   0 -10  368.33   12.81
  -1   0 -11    0.47    6.11
   1  -1 -12  306.53   12.18
   1   1 -12  298.54   12.41
   1   1 -11   26.84    5.97
   1  -1 -11   30.57    5.85
   1   1 -10  467.34   13.42
  -1   1  10  491.25   12.21
   1   1 -10  484.99   14.49
   1   1  -9  489.47   13.83
  -1   1   9  497.42   11.61
  -1   1   9  493.35   11.84
  -1  -1   8    8.95    2.44
  -1   1   8    8.79    2.41
   1   1  -8    7.34    3.26
  -1   1   8   10.24    2.22
  -1  -1   7  778.14   15.91
  -1   1   7  778.89   15.62
  -1   1   7  780.11   15.87
   1   1  -7  753.40   17.24
   1  -1  -6    1.63    1.52
   1   1  -6    2.40    1.77
  -1  -1   6    0.60    1.51
  -1   1   6   -0.32    1.39
  -1  -1   5 1457.32   26.77
   1   1  -5 1446.21   27.75
  -1   1   5 1465.88   26.54
   1  -1  -5 1441.26   27.09
  -1  -1   4 1916.95   34.07
   1  -1  -4 1906.98   34.31
   1   1  -4 1870.80   34.82
  -1   1   4 1901.77   33.86
   1   1  -3   78.62    2.57
  -1   1   3   78.76    2.04
   1  -1  -3   77.48    2.28
  -1  -1   3   79.25    2.18
   1   1  -2 1838.22   31.97
   1   1  -2 1805.24   31.86
   1  -1  -2 1809.34   31.63
   1  -1  -2 1832.14   31.93
   1   1  -2 1819.45   32.28
  -1  -1   1   23.91    0.80
   1  -1  -1   24.59    1.05
  -1   1   1   22.96    0.89
   1   1  -1   24.51    0.91
  -1   1   1   25.54    0.80
   1   1  -1   24.43    0.91
  -1   1   1   21.84    1.04
  -1   1   1   20.89    0.86
   1   1   0   28.08    0.96
  -1  -1   0   24.95    0.92
   1   1   0   26.83    0.94
  -1  -1   0   24.72    0.94
   1  -1   1   89.75    2.35
  -1  -1  -1   92.23    2.34
   1   1   1   92.18    2.33
  -1  -1  -1   95.16    2.27
   1  -1   1   91.72    2.35
   1   1   2  574.10   11.20
   1  -1   2  558.24   11.21
  -1  -1  -2  577.26   11.25
   1  -1   2  621.50   11.32
  -1   1  -2  595.78   11.26
  -1  -1  -3  320.26    7.24
   1  -1   3  335.50    7.25
   1  -1   3  343.39    7.30
   1   1   3  334.12    7.24
  -1  -1  -4  991.52   19.22
   1  -1   4 1027.51   19.18
   1  -1   4  972.74   19.04
   1   1   4  978.02   18.98
   1  -1   5   27.04    2.14
   1   1   5   26.52    2.07
   1  -1   5   26.62    2.21
   1  -1   6   50.67    3.05
   1   1   6   51.26    3.07
   1   1   6   52.53    3.12
   1  -1   6   53.87    3.19
   1  -1   7  738.64   16.13
   1   1   7  730.09   15.91
   1   1   7  733.95   16.10
   1   1   8  172.78    6.41
   1  -1   8  175.33    6.67
   1   1   8  204.17    6.92
   1   1   9    6.61    3.39
  -1   1  -9    7.83    4.51
   1   1   9    8.89    3.32
   1   1  10   40.28    4.76
  -1   1 -10   34.72    6.02
  -1   1 -11   30.99    6.74
   1   1  11   17.23    4.81
   1   2 -12    9.16    6.63
   1  -2 -12    0.93    5.97
   1  -2 -11    0.44    5.49
   1  -2 -11    3.04    5.54
   1   2 -11    9.85    5.56
   1  -2 -10  298.80   11.16
   1  -2 -10  324.58   11.24
  -1   2  10  302.73    9.06
   1   2 -10  302.91   10.98
  -1   2   9  149.52    5.89
   1   2  -9  169.33    7.56
  -1   2   9  165.84    5.68
   1  -2  -9  160.63    7.47
  -1   2   8    3.02    2.33
  -1   2   8    6.47    2.25
   1  -2  -8    5.89    3.21
   1   2  -8    4.32    3.14
   1  -2  -7   51.44    3.19
   1  -2  -7   54.12    3.87
   1   2  -7   46.41    3.63
  -1   2   7   46.07    2.70
   1  -2  -6  313.70    7.84
   1   2  -6  312.53    8.39
  -1   2   6  324.44    7.30
   1  -2  -6  301.65    8.38
  -1   2   5   52.77    2.24
   1  -2  -5   47.17    2.74
   1   2  -5   52.51    2.89
   1  -2  -5   50.82    2.43
   1  -2  -4 3611.03   64.17
   1  -2  -4 3594.44   64.69
   1   2  -4 3615.66   64.67
  -1   2   4 3680.26   63.82
   1  -2  -3  754.86   13.46
   1  -2  -3  786.22   14.25
   1  -2  -3  752.47   14.52
   1   2  -3  756.32   14.52
   1   2  -2    7.77    0.58
  -1   2   2    6.84    0.62
   1  -2  -2    7.88    0.66
   1   2  -2    7.06    0.87
   1  -2  -2    8.51    0.92
  -1   2   2    7.88    0.44
  -1   2   1 2776.87   48.69
  -1   2   1 2663.64   48.74
   1   2  -1 2844.54   48.75
   1   2  -1 2824.76   48.73
   1  -2  -1 2781.97   48.74
  -1  -2   1 2881.38   48.76
  -1  -2   1 2800.73   48.70
   1  -2  -1 2812.46   48.72
  -1   2   0  138.26    3.09
  -1   2   0  135.09    2.97
   1   2   0  147.12    3.23
   1   2   0  143.17    3.17
   1   2   1  432.24    8.30
  -1  -2  -1  435.54    8.42
   1   2   1  432.15    8.41
  -1  -2  -2    3.75    0.92
  -1  -2  -2    3.04    0.88
   1  -2   3   59.67    2.40
   1   2   3   63.83    2.37
   1  -2   4  197.03    5.31
   1   2   4  196.74    5.18
   1   2   5  431.20    9.72
   1  -2   5  431.68    9.94
   1   2   6   95.31    3.99
   1  -2   6   97.48    4.11
   1   2   7  706.66   15.45
   1   2   8  460.33   11.37
   1   2   8  442.53   11.50
  -1  -2  -8  409.64   11.61
  -1  -2  -9   20.85    4.91
  -1   2  -9   16.85    4.80
   1   2   9   18.69    3.66
   1   2   9   12.25    3.64
  -1  -2 -10  344.93   12.42
   1   2  10  356.75   10.60
  -1   2 -10  379.54   12.77
   1   2  10  354.01   10.88
   1   2  11   -4.31    4.73
  -1  -2 -11   -0.46    6.10
  -1   2 -11   -1.39    6.16
   1  -3 -12   -4.91    6.52
   1  -3 -11    6.36    5.51
   1   3 -11    8.27    5.54
   1  -3 -11    5.57    5.87
   1  -3 -10   14.31    5.12
  -1   3  10    7.49    3.47
   1   3 -10   13.50    4.78
   1  -3 -10   18.38    5.22
   1  -3  -9   14.60    4.09
  -1   3   9   17.31    3.13
   1   3  -9   12.60    4.10
  -1   3   9   12.77    2.96
   1  -3  -8    8.73    2.77
  -1   3   8    7.11    2.34
   1  -3  -8    8.42    3.23
   1   3  -8   10.45    3.15
   1  -3  -7 1079.59   22.14
   1   3  -7 1120.87   22.95
   1  -3  -7 1088.99   23.00
  -1   3   7 1105.18   21.36
   1  -3  -6    1.70    1.73
   1   3  -6    1.15    2.16
   1  -3  -6    1.19    2.07
  -1   3   6    2.02    1.47
   1  -3  -5   18.70    1.78
   1   3  -5   21.67    2.16
  -1   3   5   18.06    1.60
   1  -3  -5   18.02    2.18
   1   3  -4    4.81    1.43
   1  -3  -4    5.27    1.43
   1  -3  -4    6.79    1.21
   1   3  -3  868.14   16.56
   1  -3  -3  870.64   16.57
   1   3  -3  884.55   15.72
   1  -3  -3  887.00   16.46
  -1   3   3  879.32   16.05
   1  -3  -2    2.51    0.82
   1   3  -2    3.25    0.80
   1  -3  -2    2.10    0.77
  -1   3   2    2.06    0.73
  -1  -3   1 1357.52   23.56
  -1   3   1 1280.92   23.54
   1   3  -1 1365.79   23.59
   1  -3  -1 1363.51   24.23
   1  -3  -1 1296.07   23.57
   1  -3  -1 1338.57   23.57
  -1   3   1 1326.03   23.54
  -1  -3   1 1394.53   23.60
   1   3  -1 1353.17   23.60
  -1   3   0  218.19    4.31
  -1  -3   0  224.68    4.40
   1   3   0  225.41    4.91
   1   3   1 5165.15   90.43
   1   3   1 5180.39   90.26
   1   3   2  542.72   10.48
   1   3   2  530.77   10.66
  -1  -3  -2  545.04   10.86
   1   3   3  298.35    6.82
   1   3   4  114.39    3.77
   1   3   5  588.78   12.61
   1   3   6   13.40    2.21
  -1  -3  -6   11.05    2.31
   1   3   7   50.65    3.49
  -1  -3  -7   50.53    3.69
   1   3   8   52.24    4.02
  -1  -3  -8   53.96    4.42
   1   3   9  150.82    6.48
  -1  -3  -9  138.55    7.73
   1   3   9  146.65    6.65
  -1   3  -9  178.10    8.26
  -1  -3  -9  145.53    6.98
  -1   3 -10    0.82    5.30
   1   3  10    0.81    3.87
  -1  -3 -10    2.94    5.34
   1   3  10   -1.48    4.07
  -1  -3 -11   72.36    7.72
   1   3  11   68.86    6.11
  -1   3 -11   73.50    7.78
   1  -4 -11    2.47    5.35
   1  -4 -11    2.89    5.94
   1   4 -11   -1.97    5.24
   1   4 -10  161.52    7.86
   1  -4 -10  139.87    7.69
  -1   4  10  136.40    6.25
   1  -4 -10  139.71    8.29
   1   4  -9  442.21   12.55
   1  -4  -9  430.76   12.63
   1  -4  -9  422.18   11.63
  -1   4   9  424.40   10.60
   1   4  -8   26.08    3.77
   1  -4  -8   21.94    3.17
  -1   4   8   18.23    2.60
   1  -4  -8   19.65    3.70
   1  -4  -7    5.47    2.30
  -1   4   7    2.45    2.03
   1   4  -7    4.37    2.67
   1  -4  -7    0.72    2.58
   1   4  -6   31.86    2.87
   1  -4  -6   30.22    2.53
  -1   4   6   31.46    2.28
   1  -4  -6   24.84    2.79
   1  -4  -5  213.01    5.66
   1  -4  -5  187.90    5.71
  -1   4   5  205.65    5.31
   1   4  -5  206.01    5.82
   1   4  -4 1362.96   24.66
   1  -4  -4 1400.00   25.85
   1   4  -4 1437.12   25.96
   1  -4  -4 1403.47   25.96
   1  -4  -3  531.54   10.98
  -1   4   3  522.87    9.93
   1   4  -3  532.85   10.51
   1  -4  -3  529.65   10.57
  -1   4   3  548.87   10.37
   1   4  -2   82.27    2.24
   1  -4  -2   82.19    2.71
  -1   4   2   81.97    2.40
   1  -4  -2   82.28    2.93
   1  -4  -2   83.94    2.26
   1  -4  -1 2182.92   39.08
   1  -4  -1 2189.14   38.16
   1   4  -1 2186.92   38.24
  -1  -4   1 2188.22   38.16
   1  -4   0   48.94    1.79
  -1   4   0   49.24    1.27
  -1  -4   0   53.98    1.41
   1   4   0   50.01    2.06
   1   4   1  734.89   14.22
   1   4   1  743.28   14.08
  -1  -4  -2  438.07    9.43
   1   4   2  438.78    8.99
   1   4   2  450.01    9.27
  -1  -4  -3  124.16    3.95
   1   4   4    1.65    1.35
  -1  -4  -5 1068.18   21.41
   1   4   5 1063.78   21.10
   1   4   6   18.90    2.55
  -1  -4  -6   17.88    2.56
  -1  -4  -7  885.98   19.58
   1   4   7  914.11   19.11
  -1   4  -8  476.02   13.00
   1   4   8  453.11   11.71
  -1  -4  -8  451.43   12.36
   1   4   9   22.46    4.11
  -1   4  -9   13.50    4.61
   1   4   9   14.95    3.77
  -1  -4  -9   19.70    5.15
  -1  -4  -9   13.61    4.26
  -1   4 -10   55.35    6.53
   1   4  10   57.91    5.54
  -1  -4 -10   62.75    6.77
   1   4  11   -1.90    4.82
   1   5 -11   60.64    6.54
   1  -5 -11   58.76    7.55
   1  -5 -11   53.98    6.53
   1  -5 -10  245.32    9.65
   1   5 -10  229.22    9.24
   1  -5 -10  222.30   10.47
   1  -5 -10  235.44    8.74
   1  -5  -9  373.59   12.59
   1  -5  -9  370.16   10.83
   1  -5  -9  378.53   11.56
   1   5  -9  378.15   11.31
  -1   5   8   68.52    3.90
   1  -5  -8   70.30    4.45
   1  -5  -8   65.73    4.93
   1   5  -8   66.69    4.68
   1  -5  -7  979.52   20.85
  -1   5   7  993.69   19.76
   1   5  -7 1004.27   20.80
   1  -5  -7  941.45   20.28
   1  -5  -6   22.67    2.49
  -1   5   6   18.81    2.24
   1  -5  -6   20.59    2.75
   1   5  -6   19.69    2.73
   1   5  -5  525.61    9.85
   1  -5  -5  525.00   11.60
   1  -5  -5  534.68   11.64
   1   5  -5  538.05   11.60
   1   5  -4  358.24    7.94
   1  -5  -4  356.68    8.02
   1  -5  -4  329.74    8.31
   1  -5  -4  361.61    8.16
  -1   5   4  361.81    7.71
   1   5  -3 1270.97   23.18
   1  -5  -3 1255.17   23.19
  -1   5   3 1279.22   23.36
   1  -5  -3 1260.85   24.03
   1  -5  -3 1285.44   24.50
  -1   5   3 1263.25   22.91
   1  -5  -2  223.86    5.82
   1   5  -2  226.68    4.69
  -1   5   2  219.78    5.24
   1  -5  -2  229.90    4.73
   1  -5  -1  131.75    2.71
   1  -5  -1  136.61    3.78
  -1  -5   1  132.97    2.94
  -1   5   1  136.91    3.73
   1   5  -1  139.82    4.01
   1   5   0   73.95    2.74
   1   5   0   74.27    1.64
  -1  -5   0   73.68    1.67
   1  -5   0   69.07    2.35
   1   5   1   38.51    1.96
   1   5   1   38.89    2.03
   1   5   2   44.51    2.15
  -1  -5  -2   48.59    2.43
   1   5   2   50.29    2.36
   1   5   3    9.27    1.51
   1   5   3    8.01    1.67
  -1  -5  -3   10.62    1.66
  -1  -5  -4  379.86    9.24
  -1  -5  -4  387.09    9.28
  -1  -5  -5   38.97    2.93
   1   5   5   40.77    2.88
   1   5   6   30.49    3.01
  -1  -5  -6   24.21    2.91
  -1  -5  -7  350.79   10.13
   1   5   7  378.42   10.00
  -1   5  -8   64.47    5.20
  -1  -5  -8   44.22    4.51
   1   5   8   38.90    3.95
  -1  -5  -8   49.18    5.09
  -1   5  -9   36.01    5.51
   1   5   9   31.87    4.30
  -1  -5  -9   39.67    5.40
  -1  -5  -9   38.19    4.79
   1   5  10   20.58    4.96
  -1   5 -10   32.82    6.09
  -1  -5 -10   26.87    5.23
  -1  -5 -10   24.99    6.10
   1  -6 -11   -5.66    6.56
   1   6 -11   -2.87    5.39
   1  -6 -11   -5.29    5.67
   1  -6 -10   62.55    6.04
   1  -6 -10   70.97    7.10
   1  -6 -10   52.07    5.52
   1   6 -10   63.11    5.87
   1  -6  -9   55.13    4.88
   1   6  -9   54.13    5.12
   1  -6  -9   59.18    5.44
   1  -6  -9   65.41    6.37
   1  -6  -8   52.52    5.32
   1  -6  -8   51.01    4.16
   1   6  -8   50.46    4.43
  -1   6   8   44.22    3.65
   1  -6  -8   64.15    4.85
   1  -6  -7    3.80    2.98
   1   6  -7    2.11    2.77
  -1   6   7    1.62    2.26
   1  -6  -7    0.64    2.45
   1  -6  -6  285.33    7.90
  -1   6   6  284.68    7.57
   1   6  -6  285.07    7.76
   1  -6  -6  285.06    7.86
   1   6  -5   18.37    2.26
   1  -6  -5   21.14    2.39
   1  -6  -5   25.71    2.48
  -1   6   4   32.32    1.78
   1  -6  -4   38.75    2.63
   1  -6  -4   40.79    3.12
   1   6  -4   35.34    2.20
   1  -6  -4   37.79    2.23
  -1   6   4   37.63    2.27
   1  -6  -3  106.89    3.88
   1   6  -3  110.86    3.03
   1  -6  -3   99.98    3.03
   1  -6  -3  101.65    4.12
  -1   6   3  104.98    3.43
  -1   6   3  101.97    3.06
   1   6  -2    8.79    0.90
  -1   6   2    9.66    1.46
   1  -6  -2    9.57    0.95
   1  -6  -2    8.93    1.73
  -1   6   1  484.87   10.39
   1   6  -1  491.45   10.76
   1  -6  -1  487.46   10.32
  -1  -6   1  501.31    9.31
   1   6   0    6.58    1.43
   1  -6   0    6.58    1.25
   1   6   1   46.89    2.32
  -1   6  -1   37.83    1.34
   1   6   1   47.57    2.45
   1   6   2 4807.14   84.96
  -1  -6  -2 4814.00   85.70
   1   6   2 4817.66   85.31
  -1  -6  -3  330.62    8.39
   1   6   3  331.73    7.72
   1   6   3  342.84    8.15
  -1  -6  -4  913.42   18.66
  -1  -6  -4  886.92   18.75
   1   6   5   95.65    4.34
  -1  -6  -5  101.95    4.58
   1   6   6  159.40    5.91
  -1  -6  -6  163.40    6.19
  -1   6  -6  153.73    5.84
  -1  -6  -7  166.10    6.67
   1   6   7  168.26    6.41
  -1   6  -7  167.86    6.65
  -1  -6  -7  171.53    6.89
   1   6   8   15.13    3.61
  -1  -6  -8   11.58    4.24
  -1   6  -8    9.09    4.04
  -1  -6  -8   12.73    3.68
  -1   6  -9    2.91    4.62
  -1  -6  -9    6.73    4.38
  -1  -6  -9   -0.34    4.68
   1   6   9    7.06    4.00
  -1   6 -10  367.70   12.18
  -1  -6 -10  372.20   12.12
  -1  -6 -10  362.49   12.38
   1   6  10  341.28   11.31
   1  -7 -11   11.76    5.79
   1  -7 -11    9.61    5.17
   1  -7 -10  307.87   10.71
   1   7 -10  294.89   10.29
   1  -7 -10  308.36   10.47
   1  -7 -10  297.16   12.36
   1   7  -9  143.32    6.92
   1  -7  -9  174.93    8.98
   1  -7  -9  152.47    7.12
   1  -7  -9  138.59    6.86
  -1   7   8    3.63    2.97
   1  -7  -8   10.51    3.72
   1  -7  -8    3.67    3.41
   1   7  -8    7.33    3.54
  -1   7   7   24.44    3.15
   1  -7  -7   31.08    3.58
   1  -7  -7   23.97    3.36
   1  -7  -7   24.02    4.16
   1   7  -7   19.84    3.21
   1  -7  -6    0.17    2.37
   1  -7  -6    4.27    2.97
   1  -7  -6    0.21    2.33
   1   7  -6    1.47    2.31
   1  -7  -5  371.80    8.62
   1  -7  -5  368.77    9.32
   1  -7  -5  353.18    9.59
   1  -7  -5  353.89   10.21
   1   7  -5  382.08    8.63
   1  -7  -4  727.24   16.54
  -1   7   4  769.69   15.27
  -1   7   4  765.82   14.58
   1  -7  -4  756.36   14.76
   1  -7  -4  736.37   16.17
   1   7  -4  753.27   14.68
  -1   7   3    7.13    1.80
   1   7  -3    7.18    1.20
   1  -7  -3    7.77    1.32
   1  -7  -3    7.31    2.14
  -1   7   3    8.77    1.59
   1  -7  -3    7.39    1.82
   1   7  -2 1056.48   18.91
   1  -7  -2 1099.29   21.02
   1  -7  -2 1071.65   18.93
  -1   7   2 1076.82   20.61
   1  -7  -1   68.04    2.97
  -1   7   1   71.21    3.11
  -1  -7   1   63.36    2.08
   1   7  -1   74.94    3.31
   1   7   0   11.89    1.84
   1   7   1 1086.80   20.89
  -1  -7  -1 1091.68   19.01
   1   7   1 1061.25   21.11
  -1  -7  -1 1059.21   19.08
   1   7   2    1.83    1.60
   1   7   2    2.51    1.75
  -1   7  -2    3.39    1.11
   1   7   3   74.42    3.19
   1   7   3   72.86    3.47
  -1   7  -3   71.55    2.74
  -1  -7  -3   73.79    3.68
  -1   7  -4  521.03   11.13
  -1  -7  -4  528.94   12.50
  -1   7  -5   29.04    2.85
  -1  -7  -5   26.39    3.09
  -1   7  -6    3.86    2.82
  -1  -7  -6    1.27    3.06
   1   7   6    6.11    2.89
  -1  -7  -6    2.32    2.84
   1   7   7   96.87    5.29
  -1  -7  -7   86.66    5.31
  -1   7  -7  103.06    5.38
  -1  -7  -7  106.32    5.56
  -1  -7  -8  355.37   10.78
   1   7   8  374.94   10.74
  -1   7  -8  343.46   10.50
  -1  -7  -8  341.82   10.98
  -1   7  -9   18.92    4.97
  -1  -7  -9   20.35    5.17
   1   7   9   23.61    4.48
  -1  -7  -9   10.02    4.56
  -1  -7 -10   13.92    5.83
  -1  -7 -10   17.74    5.38
   1  -8 -10  253.46    9.69
   1  -8 -10  268.70    9.90
   1  -8  -9    9.82    4.31
   1  -8  -9    3.02    4.30
   1  -8  -8   11.06    3.80
   1  -8  -8    3.71    4.76
  -1   8   8   10.52    3.53
   1  -8  -8    9.47    3.73
  -1   8   7    2.87    2.86
   1  -8  -7   -1.19    3.11
   1  -8  -7    1.10    3.95
   1  -8  -7    2.76    3.21
   1  -8  -6  405.64    9.74
   1  -8  -6  406.70   11.82
   1  -8  -6  403.41   10.75
   1  -8  -5   78.93    3.41
   1  -8  -5   75.02    4.33
   1  -8  -5   83.48    4.25
   1  -8  -5   90.20    5.08
  -1   8   4 1495.64   27.52
   1  -8  -4 1532.46   29.81
   1  -8  -4 1456.54   29.41
   1  -8  -4 1483.56   27.26
  -1   8   4 1494.36   28.28
   1  -8  -3  375.68    9.64
  -1   8   3  377.99    8.42
   1  -8  -3  368.86    9.56
   1  -8  -3  369.96    7.39
  -1   8   3  385.38    8.96
   1   8  -2   23.81    2.50
   1  -8  -2   24.01    2.56
  -1   8   2   25.62    2.32
   1   8  -1  167.27    5.56
   1  -8  -1  169.04    5.05
  -1  -8   1  173.48    3.98
  -1   8   1  169.81    5.39
  -1  -8   0  133.78    3.96
   1   8   0  132.99    4.80
   1   8   1  152.21    5.17
   1   8   1  150.05    4.97
  -1  -8  -2   96.20    2.64
   1   8   2  102.38    4.23
   1   8   2  106.49    4.00
  -1  -8  -3   73.39    3.91
   1   8   3   68.15    3.33
  -1  -8  -3   65.54    2.66
   1   8   3   67.04    3.60
  -1  -8  -4  252.30    6.40
   1   8   4  254.53    6.79
   1   8   4  240.69    7.22
  -1  -8  -4  246.69    7.85
  -1  -8  -5   93.71    4.96
  -1  -8  -5  103.79    4.41
  -1  -8  -6   82.90    4.54
  -1  -8  -6   86.76    5.21
   1   8   6   76.07    4.75
  -1  -8  -7  145.20    6.76
   1   8   7  134.80    6.36
  -1  -8  -7  152.27    6.38
   1   8   8  166.69    7.18
  -1  -8  -8  151.89    7.13
  -1  -8  -8  142.91    7.35
  -1  -8  -9   64.27    6.05
   1   8   9   67.16    5.69
  -1  -8  -9   65.27    6.18
   1  -9 -10   85.07    6.77
   1  -9  -9    8.97    5.90
   1  -9  -9    2.52    4.35
   1  -9  -8    2.57    4.85
  -1   9   8   -1.49    3.55
   1  -9  -8    6.03    3.91
   1  -9  -7  358.60   10.43
  -1   9   7  343.72    9.92
   1  -9  -7  364.90   11.94
   1  -9  -6   33.01    4.67
   1  -9  -6   38.91    3.88
  -1   9   5   17.63    2.83
   1  -9  -5   21.26    3.20
   1  -9  -5   23.83    3.87
   1  -9  -5   19.11    3.17
   1  -9  -4  466.95   12.11
  -1   9   4  484.18   10.33
  -1   9   4  481.77   11.10
   1  -9  -4  468.95   12.21
   1  -9  -3  207.03    6.94
   1  -9  -3  222.30    7.01
  -1   9   3  211.63    6.43
  -1   9   3  220.43    5.95
  -1   9   2   61.31    3.53
   1  -9  -2   56.46    3.53
   1   9  -2   62.07    3.83
   1  -9  -1  519.85   11.27
  -1   9   1  495.14   11.73
  -1  -9   1  510.10    9.80
   1   9  -1  500.01   12.13
  -1   9   0  251.02    7.36
  -1  -9   0  253.38    6.20
   1   9   0  255.84    7.48
  -1  -9  -1 1039.73   20.00
   1   9   1 1014.26   20.85
   1   9   1  976.03   20.44
   1   9   2   33.54    3.12
   1   9   2   26.24    2.62
  -1  -9  -3   63.97    4.11
   1   9   3   74.61    3.66
   1   9   3   69.30    3.98
  -1  -9  -4  236.89    7.93
   1   9   4  227.53    7.30
   1   9   4  238.36    6.76
  -1  -9  -5   33.51    3.88
  -1  -9  -5   20.30    3.54
  -1  -9  -5   27.69    2.94
   1   9   6  147.41    6.43
  -1  -9  -6  139.97    6.75
   1   9   7   68.38    5.25
  -1  -9  -7   68.67    5.44
   1   9   8   19.67    4.52
  -1  -9  -8   23.28    4.81
  -1  -9  -9   33.60    5.66
  -1  -9  -9   44.97    7.18
   1 -10  -9  196.91    8.57
   1 -10  -9  212.55   10.59
   1 -10  -8   22.99    4.55
   1 -10  -8   23.85    5.94
   1 -10  -7   37.83    5.52
   1 -10  -7   35.81    4.60
  -1  10   7   22.01    4.08
   1 -10  -6   79.40    5.10
   1 -10  -6   90.11    6.14
   1 -10  -5  102.30    5.27
   1 -10  -5   89.41    5.39
  -1  10   5  104.16    4.76
   1 -10  -5   99.28    5.92
   1 -10  -4  265.41    8.65
  -1  10   4  257.85    7.63
   1 -10  -4  276.54    8.71
   1 -10  -3   36.28    3.55
   1  10  -3   28.72    3.60
   1 -10  -3   29.63    3.54
  -1  10   3   30.50    3.22
  -1  10   3   27.83    2.77
   1 -10  -2   70.43    4.02
  -1  10   2   63.91    3.88
   1  10  -2   71.95    4.44
   1 -10  -1  785.77   16.20
   1  10  -1  787.68   17.52
  -1  10   1  788.34   17.13
  -1 -10   0   47.33    2.75
   1  10   0   54.02    3.77
  -1  10   0   53.14    3.76
   1  10   1  207.93    6.93
   1  10   1  190.84    6.51
  -1 -10  -1  207.39    6.05
   1  10   2  382.71    9.76
  -1 -10  -2  392.86    9.84
   1  10   2  370.72   10.20
   1  10   3   48.07    3.50
   1  10   3   53.71    4.07
  -1 -10  -3   49.11    4.09
   1  10   4   17.89    3.49
  -1 -10  -4   28.71    4.10
  -1 -10  -4   22.25    3.71
   1  10   4   19.24    3.01
  -1 -10  -5  554.92   14.20
  -1 -10  -5  541.43   14.46
  -1 -10  -6   18.55    4.24
   1  10   6   14.63    3.90
  -1 -10  -6   22.40    5.05
   1  10   7  301.73   10.00
  -1 -10  -7  290.68   10.25
  -1 -10  -7  309.93   11.52
   1  10   8  209.28    8.46
  -1 -10  -8  184.72    8.52
  -1 -10  -8  195.06   10.05
   1 -11  -9  180.83    8.28
   1 -11  -8  123.10    6.83
   1 -11  -8  104.36    7.99
   1 -11  -7  468.15   13.10
  -1  11   7  491.83   12.98
   1 -11  -7  477.77   14.52
   1 -11  -6  130.16    6.44
   1 -11  -6  136.58    7.56
   1 -11  -5  302.36    9.97
   1 -11  -5  267.29    9.50
   1 -11  -5  293.61    9.12
   1 -11  -4   14.35    3.74
   1  11  -4    9.48    3.80
   1 -11  -4    7.81    3.73
  -1  11   4    3.37    3.07
   1 -11  -3  255.09    8.15
   1 -11  -3  256.64    8.65
   1  11  -3  260.78    8.76
  -1  11   3  239.12    7.11
  -1  11   3  248.30    7.79
  -1  11   2    1.50    2.53
   1 -11  -2   -0.58    2.90
   1  11  -2    2.47    3.14
  -1  11   2    0.45    2.77
  -1  11   1   77.42    4.61
   1  11  -1   75.75    4.79
   1  11   0   24.70    3.35
   1  11   0   21.17    3.54
  -1  11   0   30.32    3.61
  -1  11  -1  183.23    7.18
   1  11   1  179.94    6.64
  -1 -11  -1  189.67    5.88
   1  11   1  203.76    7.19
   1  11   2   15.99    3.52
  -1 -11  -2   11.88    3.12
   1  11   2   15.65    3.16
   1  11   3   24.92    3.30
   1  11   3   23.71    3.86
  -1 -11  -3   27.37    3.96
   1  11   4   39.92    4.33
  -1 -11  -4   35.53    4.57
  -1 -11  -5   53.95    4.99
  -1 -11  -5   67.24    5.69
  -1 -11  -6   16.37    5.23
  -1 -11  -6   14.77    4.62
   1  11   6   18.44    4.36
  -1 -11  -7  322.44   11.90
   1  11   7  303.31   10.41
  -1 -11  -7  318.26   10.93
   1  11   8    9.68    4.86
   1 -12  -8    1.87    4.78
   1 -12  -8    7.71    6.33
   1 -12  -7   20.46    5.77
   1 -12  -7   25.62    5.06
   1 -12  -6   71.04    5.61
   1 -12  -6   82.03    6.58
   1 -12  -5   21.88    4.98
   1 -12  -5   25.81    4.57
   1  12  -5   12.59    4.54
   1 -12  -5   30.16    4.35
   1 -12  -4   18.09    4.20
  -1  12   4    7.85    3.61
   1  12  -4   10.66    4.23
   1 -12  -4   13.57    4.18
  -1  12   3  103.52    5.53
   1 -12  -3   96.37    5.43
   1  12  -3  108.17    6.16
   1 -12  -3  100.43    5.96
  -1  12   2   56.57    4.21
   1  12  -2   61.04    5.07
  -1  12   2   64.65    4.64
  -1  12   1  506.92   12.84
   1  12  -1  488.89   13.19
   1  12   0   53.43    4.39
  -1  12   0   58.42    4.82
   1  12   0   51.63    4.64
  -1  12  -1   39.87    4.55
   1  12   1   52.61    4.68
   1  12   1   50.14    4.22
  -1  12  -2  559.52   14.75
   1  12   2  566.50   14.18
   1  12   2  555.39   13.53
  -1 -12  -3  216.66    7.65
   1  12   3  207.09    7.86
  -1 -12  -4  126.70    6.63
   1  12   4  134.59    6.53
  -1 -12  -5   61.39    5.93
  -1 -12  -5   74.19    5.87
   1  12   6  119.56    6.97
  -1 -12  -6  119.37    7.88
  -1 -12  -6  110.64    7.06
  -1 -12  -7  219.71   10.19
   1  12   7  214.87    9.00
  -1 -12  -7  211.04    9.20
   1 -13  -7    6.91    4.83
   1 -13  -7   14.92    5.99
   1 -13  -6    2.14    5.43
   1 -13  -6   -2.16    4.46
   1 -13  -5  161.04    7.46
   1 -13  -5  152.42    7.91
   1 -13  -5  170.00    8.05
   1  13  -5  155.81    8.23
   1 -13  -4  287.10   10.28
   1  13  -4  268.53   10.06
   1  13  -3   16.93    4.61
  -1  13   3   24.73    4.29
   1 -13  -3   23.56    4.67
   1  13  -2  265.40    9.58
   1 -13  -2  269.70    9.65
  -1  13   2  260.94    8.87
   1  13  -1    8.74    4.03
  -1  13   1    5.85    3.64
  -1  13   1    8.07    4.11
   1  13  -1    9.03    3.96
   1  13   0   71.70    5.44
  -1  13   0   73.53    5.43
   1  13   0   67.08    5.27
   1  13   1  382.77   10.93
  -1  13  -1  384.33   11.73
   1  13   1  409.41   11.67
  -1  13  -2   36.38    4.96
   1  13   2   39.86    4.45
   1  13   2   48.40    5.01
  -1  13  -3   54.72    5.80
   1  13   3   46.30    5.05
   1  13   4   17.54    4.56
  -1 -13  -5   81.42    6.40
  -1 -13  -5   74.90    6.50
  -1 -13  -6    3.98    5.21
   1  13   6    3.78    4.84
  -1 -13  -6   -0.73    5.31
   1 -14  -6  113.26    7.01
   1  14  -5  116.06    7.88
   1 -14  -5  111.88    7.51
   1 -14  -5  127.37    6.92
   1  14  -4  317.87   11.35
   1 -14  -4  311.91   11.27
   1  14  -3   24.40    5.35
   1 -14  -3   23.33    5.04
   1  14  -2    1.38    4.64
   1 -14  -2   -1.45    4.53
  -1  14   2   -1.15    4.41
   1  14  -1    3.01    4.55
   1  14  -1   15.50    4.54
  -1  14   1    3.88    4.37
   1  14   0   56.88    5.53
   1  14   0   63.58    5.50
  -1  14   0   70.11    5.84
  -1  14  -1    3.28    4.63
   1  14   1    7.46    4.13
   1  14   1    7.43    4.69
  -1  14  -2   45.14    5.86
  -1 -14  -2   59.66    5.97
   1  14   2   51.48    5.52
   1  14   3   23.37    5.12
  -1 -14  -3   15.74    5.09
  -1  14  -3   23.53    5.67
  -1 -14  -4  129.73    7.99
  -1  14  -4  147.73    8.47
   1 -15  -3  149.60    8.27
   1  15  -3  140.61    8.29
   1 -15  -2   15.93    5.39
   1  15  -2   14.11    5.51
   1  15  -2   18.68    5.36
   1  15  -1   16.66    5.10
  -1  15   1    9.99    4.89
   1  15  -1   20.47    5.63
  -1  15   0  192.16    8.28
   1  15   0  204.92    8.46
  -1  15   0  219.68    8.90
   1  15   0  198.82    8.94
  -1 -15  -1  148.24    8.29
   1  15   1  135.96    7.59
  -1  15  -1  127.50    7.69
   1  15   2   37.92    5.70
  -1 -15  -2   47.01    6.29
  -1  15  -2   34.72    6.02
   2   0 -12   11.80    6.08
   2   0 -11    3.31    4.77
   2   0 -11    1.70    5.19
   2   0 -10    2.65    4.00
   2   0 -10    0.38    4.35
  -2   0   9    0.51    2.33
   2   0  -9    2.35    3.58
   2   0  -9    2.32    3.34
   2   0  -8   44.50    3.81
  -2   0   8   32.01    2.63
   2   0  -8   32.02    3.65
   2   0  -7    0.43    2.29
   2   0  -7   -1.18    2.09
  -2   0   7    0.35    1.57
   2   0  -6  628.78   14.48
   2   0  -6  669.22   14.41
  -2   0   6  688.62   13.19
  -2   0   5    0.27    0.88
   2   0  -5   -0.14    1.44
   2   0  -5    1.64    1.43
  -2   0   4  474.20    8.86
   2   0  -4  465.79    9.82
   2   0  -4  453.93    9.86
   2   0  -3    0.78    0.90
   2   0  -3    0.90    0.93
   2   0  -3    0.59    0.37
  -2   0   3    1.01    0.45
   2   0  -2   79.33    1.81
   2   0  -2   75.61    2.29
   2   0  -2   72.96    2.29
   2   0  -2   73.96    2.24
   2   0  -2   78.38    1.65
   2   0  -1    0.03    0.53
   2   0  -1    0.33    0.40
  -2   0   1    0.80    0.50
   2   0  -1    0.21    0.73
   2   0  -1    0.75    0.78
  -2   0   1    0.48    0.43
   2   0   0  481.79    8.73
  -2   0   0  501.72    8.99
  -2   0  -1    1.41    0.72
   2   0   1    0.82    0.74
  -2   0  -2 1680.50   29.85
   2   0   2 1612.68   29.87
   2   0   3    0.45    0.97
  -2   0  -3   -0.67    1.11
   2   0   4 2777.49   50.41
   2   0   4 2804.77   50.46
  -2   0  -4 2765.83   50.47
   2   0   5    1.03    1.68
   2   0   5    0.67    1.71
  -2   0  -5    1.96    1.68
  -2   0  -6 1396.45   28.06
   2   0   6 1420.65   27.76
   2   0   6 1427.55   27.87
   2   0   7   -0.70    2.58
   2   0   7   -4.05    2.65
   2   0   8   86.16    5.06
   2   0   8   87.20    5.16
   2   0   9   -1.18    3.81
   2   0  10   17.25    4.72
  -2   0 -10   29.06    6.45
   2  -1 -12    0.42    5.87
   2   1 -12    2.33    6.14
   2  -1 -11   30.19    5.72
   2   1 -11   25.61    5.50
   2   1 -10  311.42   10.02
   2   1 -10  325.12   11.01
   2  -1 -10  279.79   10.43
   2  -1  -9  131.67    6.62
   2   1  -9  147.62    6.36
   2   1  -9  147.34    6.81
  -2   1   9  138.79    5.11
   2   1  -8  859.14   19.42
   2   1  -8  850.62   18.69
  -2   1   8  871.57   17.44
  -2   1   8  879.83   17.11
   2  -1  -8  837.45   19.34
   2   1  -7  428.83   10.54
  -2   1   7  438.96    9.21
   2  -1  -7  417.99   11.00
  -2   1   7  438.09    9.49
   2   1  -7  420.53   11.01
  -2   1   6  232.39    5.18
   2   1  -6  211.74    6.45
   2   1  -6  201.32    6.07
   2  -1  -5 1487.98   27.72
   2   1  -5 1513.60   28.13
  -2   1   5 1514.04   27.03
   2   1  -5 1502.37   28.54
   2  -1  -5 1527.22   28.71
  -2   1   4   24.79    1.05
   2   1  -4   26.88    1.65
   2   1  -4   22.27    1.69
   2  -1  -4   23.37    1.81
   2  -1  -4   26.14    1.43
   2   1  -3 1404.49   25.41
   2   1  -3 1383.45   24.51
   2  -1  -3 1383.89   25.60
   2   1  -3 1402.88   25.14
   2  -1  -3 1402.41   24.76
  -2   1   3 1387.39   24.34
  -2   1   2 2392.66   41.22
   2   1  -2 2322.23   42.05
   2  -1  -2 2381.55   42.24
   2  -1  -2 2385.84   41.29
   2   1  -2 2355.66   42.00
  -2   1   2 2364.31   41.30
   2   1  -2 2384.31   41.63
   2   1  -1  385.24    7.30
  -2   1   1  397.14    7.09
   2   1  -1  376.86    7.57
  -2   1   1  382.36    7.06
   2   1  -1  371.03    7.52
   2  -1   0 5420.24   92.70
   2  -1   0 5202.79   92.34
  -2   1   0 5391.52   92.40
   2   1   0 5390.10   92.82
  -2  -1  -1  127.68    3.21
   2   1   1  123.61    3.23
  -2   1  -1  129.66    3.09
  -2  -1  -2   17.68    1.34
   2  -1   2   17.16    1.32
  -2   1  -2   18.14    1.37
   2  -1   2   17.20    1.31
   2   1   2   18.35    1.39
   2  -1   3  206.94    5.29
   2   1   3  201.53    5.24
  -2   1  -3  208.33    5.26
   2  -1   3  198.17    5.22
  -2  -1  -3  195.27    5.18
   2  -1   4   67.43    3.01
   2   1   4   73.91    3.11
   2  -1   4   63.66    3.02
  -2   1  -4   79.99    3.21
  -2  -1  -4   78.10    3.18
  -2  -1  -5  207.03    6.09
   2   1   5  197.15    5.90
   2  -1   5  192.86    5.93
   2  -1   5  194.50    5.96
   2  -1   6  520.66   12.08
  -2  -1  -6  504.41   12.18
   2  -1   6  495.57   11.90
   2   1   6  518.98   11.97
   2   1   6  480.20   11.86
   2   1   7    7.98    2.76
  -2  -1  -7    9.65    2.79
   2  -1   7   12.57    2.93
   2  -1   7    5.20    2.77
   2   1   7    7.67    2.81
   2   1   8  211.24    7.69
   2  -1   8  209.82    7.70
   2   1   8  216.00    7.56
   2   1   9  159.63    7.14
   2   1   9  157.25    6.93
  -2   1 -10    0.45    5.72
   2   1  10    3.50    4.46
   2  -2 -12    6.88    5.92
   2   2 -12    3.65    5.94
   2  -2 -12    4.63    6.16
   2  -2 -11  212.32    9.62
   2  -2 -11  218.54    9.97
   2   2 -11  227.06    9.88
   2  -2 -10   32.22    5.11
   2  -2 -10   22.25    4.87
   2   2 -10   30.47    4.87
   2   2  -9   66.54    5.19
   2  -2  -9   58.91    5.16
  -2   2   9   60.79    3.66
   2   2  -9   67.61    4.43
   2  -2  -9   63.01    4.98
   2   2  -8  822.75   18.33
  -2   2   8  808.10   15.94
   2  -2  -8  782.42   18.24
  -2   2   8  793.26   16.31
   2   2  -8  787.86   17.08
   2  -2  -8  781.32   18.49
   2  -2  -7  169.30    5.40
   2  -2  -7  167.40    6.39
   2  -2  -7  172.65    6.27
   2   2  -7  171.27    5.53
  -2   2   7  177.16    4.70
   2   2  -7  165.30    6.09
   2   2  -6  250.22    7.15
   2  -2  -6  251.92    6.44
   2  -2  -6  258.65    7.52
   2  -2  -6  244.93    7.13
   2   2  -6  237.60    6.40
  -2   2   6  262.10    5.78
   2  -2  -5  105.90    3.83
   2  -2  -5  102.73    3.24
   2   2  -5  107.83    3.35
  -2   2   5  105.09    2.82
   2  -2  -5   96.10    3.95
   2   2  -5   97.66    3.70
   2  -2  -5   94.22    2.11
   2  -2  -4  103.23    2.90
   2  -2  -4  103.08    3.70
   2   2  -4  111.98    3.48
   2  -2  -4  108.83    3.44
   2   2  -4  106.86    2.97
  -2   2   4   94.34    2.51
   2  -2  -3 1142.46   20.46
   2  -2  -3 1143.76   21.07
   2   2  -3 1145.79   20.56
   2   2  -3 1128.65   21.07
   2  -2  -3 1136.95   21.53
   2  -2  -2 5404.72   95.07
   2  -2  -2 5482.92   94.75
   2  -2  -2 5466.43   95.01
   2   2  -2 5489.30   95.00
   2   2  -2 5444.93   95.05
  -2   2   2 5441.36   94.29
   2  -2  -2 5457.19   94.43
   2   2  -2 5442.98   95.04
   2  -2  -1    0.42    0.78
   2   2  -1    1.51    0.81
   2   2  -1    0.36    0.72
   2  -2  -1    0.67    0.70
   2   2   0   40.23    1.59
   2   2   0   38.44    1.56
   2   2   1 1128.42   20.63
  -2  -2  -1 1119.56   20.50
   2  -2   2   82.61    2.82
  -2  -2  -2   76.95    2.72
   2   2   2   84.25    2.80
   2  -2   3  137.04    4.16
   2  -2   3  139.01    4.17
  -2  -2  -3  136.60    4.12
   2   2   3  137.25    4.12
   2  -2   4    3.60    1.45
   2   2   4    1.48    1.54
  -2  -2  -4    1.94    1.44
  -2  -2  -5    6.43    1.87
   2   2   5    6.42    1.99
   2  -2   5    2.69    1.86
   2  -2   6  142.67    5.44
  -2  -2  -6  158.71    5.71
   2   2   6  132.01    5.19
   2   2   7  103.79    5.09
   2   2   7  107.27    5.00
   2  -2   7  115.88    5.35
   2   2   8   69.12    4.87
   2   2   8   81.73    4.97
   2   2   9  290.21    9.67
   2   2   9  290.88    9.40
   2   2  10   73.40    5.75
  -2   2 -10   93.20    7.88
   2   2  10   75.42    6.04
  -2  -2 -10   82.17    7.62
   2  -3 -12   10.37    6.26
   2  -3 -12   20.77    6.44
   2   3 -12   19.31    6.30
   2  -3 -11  356.09   12.95
   2  -3 -11  346.35   12.28
   2   3 -11  370.24   12.47
   2  -3 -10    0.37    4.43
   2  -3 -10    0.41    4.53
   2   3 -10    6.04    4.40
  -2   3   9  122.76    4.96
   2   3  -9  135.91    6.56
   2  -3  -9  128.65    7.02
   2  -3  -9  125.64    6.50
   2   3  -8   93.29    5.06
   2  -3  -8   89.58    5.12
  -2   3   8   96.84    3.73
   2  -3  -8  101.64    5.71
   2  -3  -8   87.57    4.30
   2   3  -8   92.40    4.27
   2  -3  -7    4.14    1.85
   2  -3  -7    2.50    2.61
  -2   3   7    4.70    1.66
   2   3  -7    6.25    2.55
   2  -3  -7    2.54    2.43
   2   3  -7    5.77    2.00
   2  -3  -6   18.05    2.00
   2   3  -6   19.57    1.99
   2  -3  -6   17.42    2.56
  -2   3   6   19.31    1.67
   2   3  -6   17.81    2.25
   2  -3  -6   20.28    2.48
   2  -3  -5 1731.04   33.26
   2   3  -5 1747.52   32.51
   2   3  -5 1724.88   31.45
  -2   3   5 1761.66   31.39
   2  -3  -5 1736.27   31.86
   2  -3  -5 1751.25   32.57
   2  -3  -4    5.13    1.02
   2   3  -4    5.14    0.93
   2  -3  -4    7.21    1.53
   2   3  -4    5.37    1.38
   2  -3  -4    7.08    1.44
   2  -3  -3   44.80    1.84
   2  -3  -3   44.83    1.65
   2   3  -3   43.67    1.92
  -2   3   3   45.12    1.36
   2  -3  -3   48.04    2.00
   2   3  -2  576.10   11.45
   2  -3  -2  580.09   11.12
   2  -3  -2  587.83   11.17
   2   3  -2  600.64   11.19
   2  -3  -2  588.72   11.19
  -2  -3   2  594.96   10.69
   2   3  -2  589.56   11.17
  -2   3   2  576.95   10.76
   2   3  -1  149.32    3.43
   2   3  -1  157.77    3.57
   2  -3  -1  151.06    3.88
   2  -3  -1  148.06    3.43
   2  -3  -1  135.64    3.42
   2   3   0    2.62    1.02
   2   3   0    3.00    0.96
  -2  -3  -1 1331.20   24.46
   2   3   1 1321.35   24.54
   2   3   1 1349.48   24.48
  -2  -3  -2    0.10    0.95
   2   3   3 6511.25  115.06
  -2  -3  -3 6578.91  115.15
  -2  -3  -4    0.16    1.44
   2   3   4    1.06    1.49
   2   3   5  366.92    9.35
  -2  -3  -5  394.45    9.55
   2   3   6   31.05    2.99
   2   3   7   42.84    3.73
   2   3   8   52.04    4.40
   2   3   8   56.55    4.65
   2   3   9   90.38    5.91
   2   3   9   83.55    5.58
  -2   3 -10    1.72    5.63
   2   3  10    2.11    4.34
  -2  -3 -10   -0.44    5.73
   2   3  10    2.93    4.63
   2  -4 -12   33.61    7.34
   2   4 -12   27.96    6.24
   2  -4 -12   19.10    6.28
   2  -4 -11  148.65    8.44
   2   4 -11  151.65    8.27
   2  -4 -11  133.84    8.88
   2  -4 -10   39.06    5.06
   2  -4 -10   37.32    5.63
   2   4 -10   36.25    5.04
   2  -4  -9   29.43    4.84
   2  -4  -9   23.78    4.19
   2   4  -9   21.35    4.26
   2  -4  -9   21.06    3.52
   2  -4  -8  410.22   10.44
   2   4  -8  413.06   11.18
   2  -4  -8  407.35   12.22
  -2   4   8  417.48    9.50
   2  -4  -8  406.63   11.26
   2   4  -7  477.17   11.61
   2  -4  -7  459.84   10.82
   2   4  -7  473.88   10.04
  -2   4   7  472.17   10.16
   2  -4  -7  460.72   12.48
   2  -4  -7  445.04   11.51
   2   4  -6   51.97    2.37
  -2   4   6   54.66    2.54
   2   4  -6   58.93    3.33
   2  -4  -6   56.63    2.91
   2  -4  -6   49.99    3.67
   2  -4  -6   57.60    3.39
   2   4  -5   58.47    2.92
   2  -4  -5   65.81    3.07
   2   4  -5   56.78    1.99
   2  -4  -5   57.81    3.33
   2  -4  -5   56.02    2.54
   2  -4  -4   50.83    2.42
   2  -4  -4   45.36    2.10
   2   4  -4   51.46    2.38
   2  -4  -3  824.26   15.60
  -2   4   3  825.24   14.77
   2  -4  -3  802.45   16.50
  -2   4   3  829.63   15.12
   2  -4  -3  830.95   15.89
   2   4  -3  824.85   15.59
   2   4  -2 2221.91   39.50
  -2   4   2 2241.40   39.46
   2   4  -2 2284.59   39.49
   2  -4  -2 2191.07   40.44
   2  -4  -2 2238.05   39.48
   2  -4  -2 2189.00   39.49
   2  -4  -1    0.95    0.84
   2  -4  -1    2.04    1.14
   2   4  -1    1.85    0.75
   2  -4  -1    1.61    0.74
   2   4   0  156.23    4.12
   2   4   0  152.43    4.15
   2   4   1 1751.98   32.08
   2   4   1 1776.16   32.24
   2   4   2  108.29    3.48
  -2  -4  -2  117.53    3.72
   2   4   2  117.14    3.71
  -2  -4  -3  712.48   14.70
   2   4   3  715.92   14.73
  -2  -4  -3  724.71   14.83
   2   4   4  218.37    6.21
   2   4   5    2.62    1.95
   2   4   6    5.46    2.50
   2   4   7  160.14    6.26
  -2  -4  -8   64.02    5.04
   2   4   8   56.14    4.69
  -2  -4  -9  546.94   15.31
   2   4   9  591.38   15.13
  -2   4  -9  582.44   16.11
   2   4   9  570.95   14.70
  -2  -4  -9  594.54   16.33
  -2   4 -10   86.49    7.38
   2   4  10   80.64    6.31
  -2  -4 -10   72.39    7.37
   2   4  10   71.93    5.80
   2   5 -11   19.23    5.40
   2  -5 -11   26.85    6.06
   2  -5 -11   27.72    6.58
   2  -5 -10   73.11    6.79
   2   5 -10   57.42    5.64
   2  -5 -10   64.40    5.95
   2  -5  -9  116.52    6.37
   2  -5  -9  132.16    5.88
   2  -5  -9  121.30    7.24
   2   5  -9  119.95    6.35
   2   5  -8  371.04   10.15
  -2   5   8  354.59    8.65
   2  -5  -8  356.46   11.25
   2  -5  -8  329.26    9.30
   2  -5  -8  328.67    9.90
   2  -5  -7  417.37   10.34
  -2   5   7  440.06    9.80
   2  -5  -7  428.68   12.11
   2  -5  -7  427.75   10.89
   2   5  -7  434.91   10.87
   2   5  -6  268.31    7.45
   2  -5  -6  257.67    7.36
  -2   5   6  279.81    6.71
   2  -5  -6  267.68    7.03
   2   5  -5 1371.17   26.02
   2  -5  -5 1361.50   26.08
   2  -5  -5 1377.70   25.85
  -2   5   4  242.61    4.75
   2   5  -4  237.06    5.79
   2  -5  -4  229.22    6.80
  -2   5   4  230.61    5.30
   2  -5  -4  228.80    5.72
   2  -5  -4  240.55    6.17
   2  -5  -4  232.04    5.81
   2  -5  -3 3168.27   55.99
   2  -5  -3 3168.25   56.63
   2  -5  -3 3124.54   55.30
  -2   5   3 3138.90   55.17
   2   5  -3 3075.39   55.26
   2   5  -2 1467.92   26.16
   2  -5  -2 1456.84   27.32
   2  -5  -2 1452.05   26.08
  -2   5   2 1442.70   26.45
   2  -5  -1  409.79    7.99
   2  -5  -1  405.36    8.98
   2   5  -1  436.37    8.05
   2   5  -1  412.77    9.14
   2   5   0 1180.68   22.43
   2   5   0 1194.13   22.53
   2   5   1    4.39    1.39
   2   5   1    0.74    1.21
  -2  -5  -2   12.72    1.68
   2   5   2   11.45    1.71
   2   5   2   12.49    1.61
  -2  -5  -3  289.26    7.46
   2   5   4    6.28    2.00
   2   5   5  201.47    6.48
   2   5   6  198.93    6.77
  -2  -5  -7   46.13    4.31
   2   5   7   48.20    4.08
  -2  -5  -8  143.53    6.73
   2   5   8  118.21    6.12
  -2  -5  -9  255.76    9.75
   2   5   9  249.14    9.09
  -2   5  -9  271.60   10.30
  -2  -5  -9  247.06   10.07
   2   5  10   13.51    5.07
  -2  -5 -10   13.12    5.99
  -2  -5 -10    5.25    4.92
  -2   5 -10    8.58    6.04
   2  -6 -11   27.44    6.93
   2  -6 -11   34.61    6.09
   2   6 -11   36.34    5.80
   2  -6 -10    7.73    4.02
   2  -6 -10   12.28    5.48
   2   6 -10    6.34    4.41
   2  -6 -10   12.45    4.93
   2  -6  -9   62.58    5.19
   2  -6  -9   61.13    4.62
   2  -6  -9   61.31    6.19
   2   6  -9   51.12    4.92
   2  -6  -8   31.52    3.91
  -2   6   8   25.79    2.93
   2  -6  -8   21.44    4.38
   2  -6  -8   27.10    3.42
   2   6  -8   28.08    3.85
   2  -6  -7   10.47    2.82
  -2   6   7    9.24    2.29
   2   6  -7    8.33    2.72
   2  -6  -7    8.19    2.49
   2  -6  -6  138.12    5.00
   2  -6  -6  141.50    4.89
   2   6  -6  131.95    4.92
   2  -6  -5   34.49    3.28
   2  -6  -5   39.69    2.63
   2   6  -5   35.76    2.50
   2  -6  -5   40.41    2.62
   2  -6  -4  538.26   11.73
  -2   6   4  523.17   10.05
   2  -6  -4  520.00   12.31
   2  -6  -4  532.45   10.88
  -2   6   4  525.59   10.66
   2   6  -4  531.70   10.83
   2  -6  -3   72.02    3.08
   2  -6  -3   78.62    3.54
   2   6  -3   72.36    2.47
  -2   6   3   72.99    2.69
   2  -6  -3   72.66    2.50
   2  -6  -2   68.95    2.15
   2  -6  -2   70.85    3.17
  -2  -6   2   67.51    1.54
  -2   6   2   73.17    2.72
   2   6  -2   70.41    2.21
   2   6  -1   31.55    1.20
   2   6  -1   28.17    2.06
   2  -6  -1   26.26    2.03
   2  -6  -1   28.60    1.18
   2  -6   0   58.72    1.80
   2   6   0   59.28    2.76
   2   6   0   57.50    1.84
   2   6   0   56.77    2.76
   2   6   1  636.14   13.14
   2   6   1  636.29   13.41
   2   6   2  214.51    5.78
  -2  -6  -2  216.02    6.12
   2   6   2  202.67    5.91
   2   6   3   10.37    2.15
  -2  -6  -3   13.15    2.01
   2   6   3    9.58    1.85
  -2  -6  -4 2019.63   38.38
   2   6   5  240.15    7.46
  -2  -6  -5  239.70    7.64
   2   6   6  623.58   14.85
  -2  -6  -6  638.14   15.19
   2   6   7    1.91    3.39
  -2  -6  -7    5.28    3.35
   2   6   8  179.13    7.34
  -2   6  -8  183.39    7.96
  -2  -6  -8  170.87    7.80
  -2  -6  -8  183.18    8.08
  -2  -6  -9   85.55    6.79
   2   6   9   72.47    5.77
  -2   6  -9   80.62    6.62
  -2  -6  -9   65.31    6.18
  -2   6 -10   -0.74    5.56
  -2  -6 -10    0.39    5.78
   2  -7 -11   -2.43    5.32
   2  -7 -11    1.55    6.42
   2  -7 -10  240.51    9.35
   2  -7 -10  259.04   11.28
   2  -7 -10  256.36    9.15
   2   7 -10  245.31    9.21
   2  -7  -9   20.53    3.82
   2  -7  -9    9.32    5.15
   2   7  -9   16.47    4.16
   2  -7  -9   14.18    4.22
   2  -7  -8  877.03   19.06
   2   7  -8  869.88   18.89
   2  -7  -8  849.46   18.92
   2  -7  -7  248.73    7.52
   2  -7  -7  234.67    8.95
   2   7  -7  248.79    7.42
   2  -7  -7  243.66    7.47
  -2   7   7  246.92    7.14
   2  -7  -6    3.29    2.31
   2   7  -6    3.44    2.32
   2  -7  -6    0.90    2.98
   2  -7  -6    1.45    2.37
   2  -7  -5   15.40    2.24
   2  -7  -5   19.68    2.50
   2   7  -5   16.94    2.18
   2  -7  -5   15.53    2.27
   2  -7  -5   11.61    2.86
   2  -7  -4   18.01    2.32
   2  -7  -4   14.57    2.62
  -2   7   4   14.99    1.49
   2   7  -4   14.31    1.77
   2  -7  -4   13.80    1.83
  -2   7   4   17.03    1.90
   2  -7  -3  522.05   10.14
   2  -7  -3  519.54   11.68
   2  -7  -3  521.66   12.02
  -2   7   3  522.16   10.91
   2   7  -3  514.27   10.16
   2  -7  -2 1712.78   32.11
  -2   7   2 1717.36   31.56
   2   7  -2 1682.88   32.28
  -2  -7   1   15.76    0.97
   2   7  -1   17.02    2.06
   2  -7  -1   15.77    1.96
   2   7   0 1629.49   31.26
   2   7   0 1700.77   29.25
   2  -7   0 1634.12   29.13
   2   7   0 1661.99   31.45
   2   7   1    7.90    1.76
   2   7   1    8.88    1.97
   2   7   2  136.95    4.74
   2   7   2  123.01    4.40
  -2  -7  -2  134.20    4.89
  -2  -7  -3  240.18    7.28
   2   7   3  242.21    7.03
   2   7   3  247.06    6.71
  -2  -7  -4   14.64    2.61
  -2  -7  -4   16.34    2.66
   2   7   5  120.46    5.37
  -2  -7  -5  118.73    5.48
   2   7   6  285.95    9.11
  -2  -7  -6  306.88    9.54
  -2  -7  -7   29.30    4.30
   2   7   7   23.88    3.96
  -2   7  -7   28.87    4.29
   2   7   8  159.47    7.30
  -2  -7  -8  161.54    7.75
  -2   7  -8  170.74    7.45
  -2  -7  -8  185.03    8.00
  -2  -7  -9   89.51    6.88
  -2  -7  -9  107.71    7.14
   2   7   9  105.92    6.55
   2  -8 -11    7.65    4.95
   2  -8 -10   49.71    5.68
   2  -8 -10   58.69    5.64
   2  -8  -9   23.62    4.29
   2  -8  -9   22.94    4.31
   2  -8  -8  558.03   13.84
   2  -8  -8  551.31   15.95
   2  -8  -8  566.90   13.51
   2  -8  -7    1.49    2.85
  -2   8   7   -0.20    2.76
   2  -8  -7    2.88    4.07
   2  -8  -7    2.90    2.94
   2  -8  -6  265.42    9.25
   2  -8  -6  295.46    8.17
   2  -8  -6  265.97    7.27
  -2   8   5   11.26    2.18
   2  -8  -5    8.56    2.41
   2  -8  -5    5.41    3.00
   2  -8  -5    4.65    1.97
   2  -8  -5    4.77    2.29
   2  -8  -4   58.05    3.55
  -2   8   4   54.14    2.49
   2  -8  -4   53.05    3.90
  -2   8   4   55.90    3.00
   2  -8  -4   51.20    2.47
   2  -8  -3   -0.11    1.17
   2  -8  -3    0.77    1.91
   2  -8  -3    3.63    2.36
  -2   8   3   -0.13    1.81
  -2   8   2 1510.06   28.17
   2  -8  -2 1483.19   28.60
   2   8  -2 1456.99   28.99
  -2   8   1  145.17    4.85
  -2  -8   1  148.42    3.77
   2   8  -1  128.15    4.91
   2   8   0   20.97    2.42
   2   8   0   20.65    2.40
   2   8   1  188.36    5.77
   2   8   1  189.24    5.99
   2  -8   1  182.61    3.89
  -2  -8  -2    3.06    2.07
   2   8   2   -0.83    1.96
   2   8   2   -1.16    2.10
  -2  -8  -3  152.18    5.84
   2   8   3  155.22    5.34
   2   8   3  160.66    5.70
  -2  -8  -4   23.79    3.26
  -2  -8  -4   13.61    2.84
   2   8   5    5.67    2.95
  -2  -8  -5    6.84    3.09
  -2  -8  -6  239.11    8.65
   2   8   6  235.29    8.22
   2   8   7   10.98    3.97
  -2  -8  -7    8.03    4.07
  -2  -8  -7   14.51    4.17
   2   8   8   47.42    5.35
  -2  -8  -8   47.37    5.56
  -2  -8  -8   55.45    5.69
  -2  -8  -9  124.96    7.75
   2   8   9  113.39    6.97
  -2  -8  -9  113.22    7.33
   2  -9 -10   15.29    6.65
   2  -9 -10   15.01    4.67
   2  -9  -9  153.22    9.19
   2  -9  -9  177.52    7.54
   2  -9  -8  142.84    8.12
   2  -9  -8  137.10    6.38
   2  -9  -7   13.32    4.55
   2  -9  -7   17.55    3.50
   2  -9  -6    4.86    3.88
   2  -9  -6    0.88    2.83
   2  -9  -5  310.04    9.32
   2  -9  -5  323.69    9.94
   2  -9  -5  316.49    8.75
  -2   9   5  334.81    8.19
  -2   9   4   -0.15    2.16
   2  -9  -4    1.89    2.46
   2  -9  -4    0.99    2.95
   2   9  -3   38.91    3.45
  -2   9   3   35.34    2.57
   2  -9  -3   42.03    3.30
   2  -9  -3   34.72    3.47
  -2   9   3   37.58    2.97
   2  -9  -2  197.15    6.34
   2   9  -2  205.09    6.80
  -2   9   2  208.31    6.22
  -2  -9   1  128.84    3.54
  -2   9   1  132.59    4.98
   2   9  -1  129.10    5.19
   2   9   0  253.96    7.45
   2   9   0  260.90    7.70
   2   9   1  191.61    6.24
   2   9   1  206.03    6.68
  -2  -9  -2   58.94    3.95
   2   9   2   56.25    3.51
   2   9   2   64.67    3.92
   2   9   3 1971.48   36.74
  -2  -9  -3 1892.00   37.73
   2   9   3 1927.24   37.31
  -2  -9  -4  108.88    5.60
  -2  -9  -4  131.58    4.50
  -2  -9  -5   78.14    4.20
   2   9   5   77.45    5.04
  -2  -9  -5   73.77    5.14
  -2  -9  -6   96.65    6.06
   2   9   6  103.75    6.04
  -2  -9  -7    6.78    4.25
   2   9   7   -1.26    4.00
   2   9   8  135.19    7.31
  -2  -9  -8  120.16    7.36
   2 -10  -9    7.39    6.18
   2 -10  -9   21.87    4.78
   2 -10  -8  114.94    6.14
   2 -10  -8  110.62    7.61
   2 -10  -7  134.14    7.49
   2 -10  -7  126.23    6.11
   2 -10  -6   42.96    5.04
   2 -10  -6   41.56    3.98
   2  10  -5   18.44    3.74
   2 -10  -5   16.75    3.95
   2 -10  -5   13.44    3.42
   2 -10  -5    9.83    3.01
   2 -10  -4   45.99    4.35
   2 -10  -4   47.04    4.04
  -2  10   4   48.19    3.52
  -2  10   3  413.34    9.52
   2 -10  -3  417.13   10.81
  -2  10   3  391.76    9.98
   2  10  -3  402.20   11.05
   2 -10  -3  407.35   10.88
   2 -10  -2  192.86    6.53
  -2  10   2  204.75    6.52
   2  10  -2  205.26    7.15
  -2  10   1   50.37    3.67
   2  10  -1   44.39    3.77
  -2 -10   0   90.07    3.64
   2  10   0   84.83    4.48
   2  10   0   82.84    4.50
  -2  10   0   81.01    4.51
  -2 -10  -1  428.83   10.13
   2  10   1  416.36   10.70
   2  10   1  419.03   11.08
  -2 -10  -2  219.43    7.69
   2  10   2  212.40    6.96
   2  10   2  212.13    7.27
  -2 -10  -3  131.50    6.08
   2  10   3  126.97    5.35
   2  10   3  124.49    5.81
  -2 -10  -4  125.84    6.23
  -2 -10  -5    0.63    3.60
  -2 -10  -6   66.22    5.71
   2  10   6   73.99    5.53
  -2 -10  -7  123.28    7.19
   2  10   7  126.81    7.09
  -2 -10  -8    5.51    5.23
   2  10   8    0.67    4.81
   2 -11  -8   24.72    4.56
   2 -11  -8   29.98    6.10
   2 -11  -7  151.19    8.34
   2 -11  -7  140.36    6.63
   2 -11  -6  112.55    7.00
   2 -11  -6  116.26    5.86
   2  11  -6  121.30    6.78
   2 -11  -5  918.00   20.74
   2 -11  -5  862.44   20.30
   2 -11  -4  272.17    9.01
   2 -11  -4  273.42    9.10
  -2  11   4  277.21    8.01
   2  11  -4  270.80    9.30
   2 -11  -3  784.41   17.33
   2 -11  -3  729.95   17.57
   2  11  -3  745.69   17.83
  -2  11   3  775.69   16.68
  -2  11   2  224.48    7.30
   2  11  -2  226.07    7.97
   2  11  -1  175.00    6.84
   2  11  -1  183.25    7.11
  -2  11   1  196.07    6.86
   2  11   0    4.28    3.22
  -2  11   0    8.91    3.39
   2  11   0    5.68    3.10
   2  11   1   52.09    4.04
   2  11   1   45.41    4.32
  -2 -11  -1   58.42    3.70
   2  11   2   -1.58    3.26
  -2 -11  -2    2.49    3.22
   2  11   2    5.41    3.06
  -2 -11  -2    1.48    3.10
  -2 -11  -3   83.93    5.53
   2  11   3   87.31    4.98
  -2 -11  -3  104.67    5.67
   2  11   3   99.80    5.53
  -2 -11  -4    5.71    3.79
  -2 -11  -5   60.94    5.57
   2  11   6    3.68    4.42
  -2 -11  -6   -0.72    4.56
  -2 -11  -7   31.17    5.64
  -2 -11  -7   29.19    6.51
   2  11   7   25.16    5.19
   2  12  -8    9.85    5.63
   2 -12  -8    1.30    6.02
   2  12  -7   17.88    5.46
   2 -12  -7    8.36    4.32
   2 -12  -7   22.95    5.91
   2  12  -6   23.48    5.41
   2 -12  -6   28.31    4.41
   2 -12  -6   21.34    5.35
   2 -12  -5   15.73    4.70
   2 -12  -5   10.24    4.09
   2 -12  -5   17.82    3.86
   2  12  -4   40.03    5.03
   2 -12  -4   27.67    4.56
   2 -12  -4   41.75    4.62
   2 -12  -3   44.25    4.45
   2 -12  -3   41.43    4.30
  -2  12   3   45.64    4.17
   2  12  -3   49.68    4.94
  -2  12   2   54.42    4.45
   2  12  -2   50.16    4.76
   2  12  -1   39.65    4.26
   2  12  -1   39.44    4.51
  -2  12   1   36.41    4.16
  -2  12   0    3.22    3.48
   2  12   0    6.41    3.55
   2  12   0    5.56    3.73
   2  12   1  561.92   14.11
   2  12   1  586.46   14.78
  -2  12  -1  573.15   14.74
  -2 -12  -2   29.39    4.38
   2  12   2   25.01    4.33
   2  12   2   24.17    3.80
  -2 -12  -3   -2.45    3.87
   2  12   3    4.08    3.50
   2  12   3    4.11    4.00
  -2 -12  -3   -1.28    3.90
  -2 -12  -4  244.99    9.55
  -2 -12  -4  235.78    8.90
  -2 -12  -5  184.73    8.38
  -2 -12  -5  188.91    8.58
  -2 -12  -6  126.66    7.80
   2  12   6  124.87    7.36
  -2 -12  -6  153.68    8.48
   2 -13  -7   64.88    7.07
   2 -13  -6   -3.51    5.55
   2 -13  -6    5.84    4.17
   2 -13  -5   57.49    5.98
   2 -13  -5   64.23    5.84
   2 -13  -5   74.86    5.38
   2  13  -4    3.53    4.50
   2 -13  -4   -0.34    4.19
   2  13  -3   35.61    4.96
   2 -13  -3   47.51    5.03
   2 -13  -2  163.88    7.50
   2  13  -2  136.60    7.08
   2  13  -2  161.69    7.73
  -2  13   2  162.52    6.81
   2  13  -1   25.14    4.74
   2  13  -1   20.35    4.42
  -2  13   1   20.12    4.30
  -2  13   0  520.76   13.60
   2  13   0  496.47   13.37
   2  13   0  490.76   13.82
   2  13   1    6.94    4.35
   2  13   1   -2.20    3.78
  -2  13  -1   -1.54    4.26
  -2 -13  -2  140.25    7.39
   2  13   2  133.99    6.30
   2  13   2  136.97    6.99
  -2  13  -2  130.72    7.30
  -2 -13  -3  233.15    9.64
   2  13   3  254.06    9.10
  -2 -13  -4   17.72    4.98
  -2 -13  -5   25.19    5.79
  -2 -13  -5    2.95    5.03
   2 -14  -5   31.27    5.54
   2  14  -5   14.53    5.77
   2  14  -4   26.64    5.59
   2 -14  -4   25.81    5.11
   2 -14  -3   30.41    5.22
   2  14  -3   41.58    5.79
   2  14  -3   43.04    5.68
   2  14  -2  308.70   10.91
   2  14  -2  326.48   11.18
   2 -14  -2  332.77   11.04
  -2  14   2  342.60   10.38
   2  14  -1   51.25    5.71
   2  14  -1   55.13    5.61
  -2  14   1   59.35    5.52
  -2  14   0    4.91    4.60
   2  14   0    0.30    4.25
   2  14   0    8.49    4.77
   2  14   1    8.65    4.77
   2  14   1   -1.15    4.36
  -2  14  -1    7.18    4.90
  -2  14  -2    5.53    4.92
  -2 -14  -2   11.42    4.98
   2  14   2    4.25    4.79
   2  14   3   -2.91    4.87
  -2  14  -3   -4.47    5.45
  -2 -14  -3   -2.02    5.16
  -2 -14  -4    1.12    5.20
   2  15  -3    6.12    5.12
   2 -15  -3    1.81    4.90
   2 -15  -2  142.95    7.94
   2  15  -2  164.64    8.14
   2  15  -2  143.50    8.10
   2  15  -1   84.19    6.40
   2  15  -1   86.22    6.90
  -2  15   1   82.57    6.34
   2  15   0  142.62    7.44
   2  15   0  137.21    7.93
  -2  15   0  153.38    7.72
  -2  15  -1   70.61    6.49
   2  15   1   74.76    6.45
   2  15   2   34.19    5.86
   3   0 -12  962.68   24.15
   3   0 -11   -1.04    4.39
   3   0 -11    0.84    4.76
   3   0 -10  226.88    8.57
   3   0 -10  219.60    9.05
   3   0  -9   -3.37    3.30
   3   0  -9    1.90    3.16
  -3   0   8    1.59    1.76
   3   0  -8    1.71    2.63
   3   0  -8    2.42    2.56
  -3   0   7    0.72    1.34
   3   0  -7   -1.34    1.90
   3   0  -6  522.56   11.88
  -3   0   6  525.49   10.13
   3   0  -6  497.52   11.58
  -3   0   5    1.13    0.77
   3   0  -5    2.47    1.44
   3   0  -5    0.58    1.27
   3   0  -4 1943.94   35.41
   3   0  -4 1930.92   35.54
   3   0  -4 1944.39   35.46
   3   0  -3   -0.18    0.97
   3   0  -3    0.47    0.63
   3   0  -3    0.45    0.50
   3   0  -3    1.01    1.00
   3   0  -2   38.84    0.94
   3   0  -2   38.80    1.06
   3   0  -2   38.86    1.81
   3   0  -2   38.78    1.84
   3   0  -2   37.60    1.40
   3   0  -1    0.21    0.62
   3   0  -1    0.18    0.95
   3   0   0   44.05    1.71
  -3   0   0   44.80    1.56
  -3   0  -1   -0.43    0.85
  -3   0  -2  747.54   14.68
   3   0   2  757.29   14.87
   3   0   3    1.52    1.32
  -3   0  -3    2.24    1.33
   3   0   3    1.54    1.23
   3   0   4 1008.18   20.20
   3   0   4  981.52   20.13
  -3   0  -4 1030.24   20.23
   3   0   5   -1.00    2.05
  -3   0  -5   -1.00    1.89
   3   0   5    3.20    2.05
  -3   0  -6  999.44   21.42
   3   0   6 1003.57   21.23
   3   0   6 1011.04   21.22
   3   0   7   -0.80    3.01
   3   0   7    3.89    3.13
   3   0   8  520.52   13.65
   3   0   8  515.22   13.76
   3   0   9    0.33    4.19
  -3   0 -10  140.39    9.09
   3  -1 -12   42.96    6.28
   3   1 -12   31.21    6.32
   3   1 -11    9.10    5.26
   3  -1 -11    4.57    4.72
   3   1 -10   74.33    5.20
   3  -1 -10   76.68    5.70
   3   1 -10   61.79    5.54
   3   1  -9    4.42    3.27
   3  -1  -9    7.76    3.64
   3   1  -9    2.74    3.08
  -3   1   8   30.28    2.28
   3   1  -8   25.19    3.18
   3  -1  -8   25.08    3.43
   3   1  -8   31.58    3.44
   3   1  -7  375.56    9.67
  -3   1   7  354.58    7.73
   3   1  -7  361.66    9.10
   3  -1  -7  349.67    9.61
   3  -1  -6 1531.28   29.39
  -3   1   6 1512.33   27.34
   3   1  -6 1519.95   28.72
  -3   1   6 1518.42   27.02
   3   1  -6 1495.89   29.17
   3   1  -5  205.95    5.47
  -3   1   5  208.23    4.10
   3  -1  -5  199.32    5.81
   3   1  -5  200.94    5.69
   3  -1  -4  383.55    6.91
   3   1  -4  376.17    7.06
   3   1  -4  386.79    8.54
   3  -1  -4  387.53    8.68
   3   1  -4  383.11    8.20
   3   1  -4  377.50    8.44
   3   1  -3  360.99    7.05
  -3   1   3  360.95    6.75
   3   1  -3  366.13    7.84
   3   1  -3  363.86    7.23
   3  -1  -3  365.02    8.01
   3   1  -3  367.36    7.80
  -3   1   2   56.63    1.37
  -3   1   2   59.45    1.40
   3   1  -2   54.92    2.15
   3   1  -2   58.77    1.88
  -3   1   2   55.67    1.37
   3   1  -2   49.00    2.07
  -3   1   2   52.58    1.38
   3   1  -2   53.88    1.72
   3   1  -1 3256.82   56.92
  -3   1   1 3271.15   56.37
   3  -1  -1 3239.04   56.91
   3   1  -1 3227.97   57.06
   3   1  -1 3213.30   57.64
  -3  -1   0 1266.24   22.61
   3  -1   0 1263.38   23.10
   3   1   0 1258.96   23.08
   3  -1   0 1281.66   23.03
  -3   1   0 1278.11   22.65
  -3   1  -1    3.70    0.98
  -3  -1  -1    0.89    0.95
  -3   1  -2 2898.63   51.46
   3   1   2 2904.00   51.77
  -3  -1  -2 2886.07   51.57
   3  -1   2 2840.56   51.74
   3  -1   3   10.87    1.66
   3   1   3    9.36    1.54
  -3   1  -3   10.54    1.57
  -3  -1  -3    9.52    1.51
   3  -1   3   11.15    1.56
   3   1   4  195.78    5.84
  -3   1  -4  196.77    5.81
  -3  -1  -4  201.25    5.89
   3  -1   4  187.27    5.79
   3  -1   4  202.04    5.97
   3  -1   5   77.62    3.93
   3   1   5   77.05    3.96
   3   1   5   73.13    3.79
  -3  -1  -5   73.45    3.83
   3  -1   5   77.58    3.87
   3  -1   6    1.65    2.46
   3   1   6    1.17    2.51
   3   1   6    5.76    2.64
   3  -1   6    0.93    2.67
  -3  -1  -6    2.65    2.59
   3   1   7   85.07    5.04
   3   1   7   81.90    4.86
   3  -1   7   93.70    5.24
  -3  -1  -7   85.30    5.13
   3  -1   8  294.41    9.52
   3   1   8  270.08    9.15
   3   1   8  250.82    9.05
   3   1   9    3.26    4.25
   3   1   9    4.36    4.17
   3   1  10  184.35    8.61
  -3   1 -10  194.56   10.19
   3  -2 -12   -2.22    5.69
   3   2 -12    0.44    5.76
   3  -2 -12    5.39    5.96
   3  -2 -11    0.41    5.00
   3   2 -11    4.04    5.15
   3  -2 -11   -3.30    4.93
   3  -2 -10   31.46    5.10
   3  -2 -10   39.82    5.10
   3   2 -10   29.53    4.78
   3   2  -9  561.03   14.55
   3  -2  -9  533.54   14.73
   3   2  -9  566.02   13.30
   3  -2  -9  558.70   14.53
  -3   2   8  101.98    3.66
   3   2  -8  107.91    5.26
   3  -2  -8   90.80    5.29
   3   2  -8  104.88    4.59
   3  -2  -8   95.27    5.10
   3   2  -7  694.52   15.57
   3   2  -7  691.09   14.64
   3  -2  -7  674.62   15.90
   3  -2  -7  666.98   15.47
  -3   2   7  707.81   13.28
   3   2  -6 1083.76   22.04
   3  -2  -6 1096.73   22.08
   3   2  -6 1115.36   21.28
  -3   2   6 1116.35   19.99
   3  -2  -6 1067.16   22.42
   3   2  -5   17.35    1.65
  -3   2   5   17.20    1.00
   3  -2  -5   13.21    1.89
   3  -2  -5   16.96    1.41
   3   2  -5   20.17    1.97
   3  -2  -5   17.71    1.91
   3  -2  -5   14.16    0.70
   3  -2  -4 1279.10   24.53
   3   2  -4 1296.06   24.18
   3  -2  -4 1275.44   24.16
   3   2  -4 1274.58   23.49
   3  -2  -4 1281.31   23.02
   3   2  -4 1285.07   24.06
   3  -2  -4 1279.23   24.06
  -3   2   3   42.96    1.09
   3   2  -3   44.64    2.03
   3  -2  -3   45.02    2.29
   3  -2  -3   43.02    2.03
   3  -2  -3   43.69    1.24
   3   2  -3   42.84    1.99
   3  -2  -3   46.40    2.02
   3   2  -3   43.12    1.76
   3  -2  -2  890.48   16.83
   3   2  -2  904.69   16.71
   3   2  -2  900.00   16.89
   3   2  -2  879.44   16.84
   3  -2  -2  883.55   16.79
   3   2  -2  898.03   16.54
   3  -2  -1    9.95    1.27
   3   2  -1    8.99    1.04
   3  -2  -1    8.89    0.52
   3   2   0 1677.17   30.41
  -3  -2  -1    2.94    0.95
   3  -2   1    3.29    1.06
   3  -2   2   40.60    2.19
  -3  -2  -2   39.52    2.15
   3   2   2   41.25    2.17
   3  -2   3  108.67    3.91
   3  -2   3  105.35    3.90
  -3  -2  -3  123.91    4.05
   3   2   3  112.56    3.94
   3  -2   4    5.83    1.85
   3  -2   4    9.60    1.98
   3   2   4    7.75    1.92
  -3  -2  -4    6.87    1.74
   3   2   5  203.16    6.42
   3  -2   5  208.96    6.67
  -3  -2  -5  211.80    6.62
   3  -2   6   23.57    3.16
  -3  -2  -6   14.71    2.99
   3   2   6   19.32    2.92
   3   2   7   56.82    4.44
  -3  -2  -7   54.19    4.52
   3   2   7   50.69    4.34
   3   2   8   63.35    5.23
  -3  -2  -8   80.40    5.57
   3   2   8   70.72    5.17
   3   2   9    8.24    4.51
   3   2   9   -0.94    4.03
  -3   2 -10   72.25    7.80
  -3  -2 -10   62.78    7.43
   3   2  10   73.20    6.11
   3   2  10   72.98    6.42
   3   3 -12   -3.01    5.80
   3  -3 -12    1.42    5.92
   3  -3 -12    6.15    5.86
   3   3 -11  465.23   13.76
   3  -3 -11  397.65   13.23
   3  -3 -11  403.04   13.84
   3  -3 -10    3.25    4.52
   3   3 -10   13.30    4.60
   3  -3 -10    8.30    4.36
   3   3  -9  745.91   17.60
   3  -3  -9  711.16   17.52
   3  -3  -9  718.05   18.24
   3  -3  -8   19.70    3.73
   3   3  -8   19.06    2.61
   3   3  -8   25.91    3.45
   3  -3  -8   19.30    3.34
   3   3  -7  601.84   13.76
  -3   3   7  597.06   11.60
   3   3  -7  591.50   12.49
   3  -3  -7  560.17   14.21
   3  -3  -7  582.37   12.56
   3  -3  -7  588.36   13.74
   3   3  -6   66.97    3.43
   3  -3  -6   58.04    3.32
   3  -3  -6   69.31    2.84
  -3   3   6   68.46    2.28
   3   3  -6   61.99    2.74
   3  -3  -6   63.18    3.80
   3  -3  -5    3.02    1.70
  -3   3   5    3.77    0.94
   3   3  -5    4.73    1.64
   3  -3  -5    2.74    1.63
   3  -3  -5    2.39    1.14
   3   3  -5    3.27    1.22
   3  -3  -4  123.02    3.11
   3  -3  -4  124.42    4.30
   3   3  -4  131.32    3.95
   3  -3  -4  125.78    3.90
   3  -3  -3 1369.57   24.19
  -3   3   3 1370.60   23.93
   3   3  -3 1360.86   25.22
   3  -3  -3 1347.05   25.21
   3   3  -3 1366.70   25.18
   3  -3  -3 1349.47   25.15
   3   3  -3 1376.70   25.12
   3   3  -2   41.71    1.86
   3  -3  -2   41.60    1.86
   3  -3  -2   42.77    1.54
   3   3  -2   45.73    1.94
   3   3  -2   47.90    2.05
   3  -3  -2   42.96    1.96
   3  -3  -1   60.67    2.23
   3   3  -1   58.66    2.33
   3   3   0   92.91    3.02
  -3  -3  -1  158.35    4.15
   3   3   1  160.05    4.42
  -3  -3  -2  122.84    3.77
   3   3   2  124.16    3.97
  -3  -3  -2  121.37    3.93
   3   3   3  131.55    4.44
  -3  -3  -3  139.64    4.60
   3   3   4    5.02    1.84
  -3  -3  -4    2.20    1.69
   3   3   5 2924.29   54.58
  -3  -3  -5 2990.21   54.72
   3   3   6   15.48    2.89
  -3  -3  -6   16.64    3.04
   3   3   7  493.97   12.95
  -3  -3  -7  515.77   13.41
  -3  -3  -8    3.58    3.82
   3   3   8    2.07    3.73
   3   3   8    2.77    4.00
   3   3   9   10.60    4.62
   3   3   9    9.68    4.24
   3   3  10   43.36    5.77
   3   3  10   45.36    5.59
   3  -4 -12   60.81    7.46
   3   4 -12   54.41    6.82
   3  -4 -12   56.72    7.09
   3  -4 -11   -1.39    5.30
   3   4 -11    1.52    4.98
   3  -4 -11   11.32    5.22
   3  -4 -10    8.56    4.94
   3   4 -10   12.84    4.55
   3  -4 -10    9.45    4.61
   3   4  -9  568.71   14.33
   3  -4  -9  536.40   14.28
   3  -4  -9  526.32   15.16
   3   4  -8    2.28    2.84
   3  -4  -8   -2.03    3.37
   3  -4  -8    2.50    2.33
   3  -4  -8   -1.04    2.88
   3   4  -7  894.23   19.02
   3  -4  -7  901.90   19.07
   3  -4  -7  888.89   20.11
   3   4  -7  879.95   17.29
  -3   4   7  916.28   17.12
   3  -4  -7  878.64   17.96
   3   4  -6  375.22    7.95
  -3   4   6  378.67    7.94
   3  -4  -6  381.37   10.23
   3  -4  -6  366.43    8.46
   3   4  -6  382.81    9.34
   3  -4  -6  394.43    9.45
   3  -4  -5   52.20    3.19
   3  -4  -5   55.93    2.31
   3   4  -5   58.03    2.90
   3  -4  -5   56.53    2.88
   3  -4  -4  437.93    8.69
  -3   4   4  437.72    8.07
   3   4  -4  428.03    9.35
   3  -4  -4  422.58    9.33
   3  -4  -3  189.96    5.53
   3   4  -3  197.51    5.09
   3   4  -3  193.24    4.84
   3  -4  -3  190.53    4.82
   3   4  -3  192.14    4.82
   3  -4  -3  196.34    4.88
   3  -4  -3  189.35    4.68
  -3   4   3  192.93    4.08
   3   4  -2  889.79   16.69
   3  -4  -2  882.81   16.69
   3  -4  -2  867.70   17.45
   3   4  -2  896.66   16.83
   3  -4  -2  895.85   16.75
   3   4  -2  885.26   17.11
   3  -4  -1 1037.97   19.61
   3   4  -1 1054.51   20.15
   3   4  -1 1084.14   19.68
   3   4   0 1239.22   23.22
   3   4   0 1228.39   23.24
  -3  -4  -1  397.05    8.64
   3   4   1  388.46    8.72
   3   4   1  388.44    8.83
  -3  -4  -2    1.31    1.31
   3   4   3  263.88    6.96
  -3  -4  -3  249.49    6.91
   3   4   4  285.94    7.81
  -3  -4  -4  281.58    7.84
   3   4   5   45.85    3.39
  -3  -4  -5   43.37    3.37
   3   4   6    0.24    2.65
  -3  -4  -6    3.12    2.83
   3   4   7   58.29    4.57
  -3  -4  -7   79.85    5.24
   3   4   8    3.29    3.78
   3   4   8   -0.31    3.73
   3   4   9    2.71    4.53
   3   4   9    5.14    4.35
   3   4  10   21.04    5.30
   3  -5 -12   24.04    6.90
   3   5 -12   29.77    6.27
   3  -5 -12   26.18    6.24
   3  -5 -11   15.88    6.10
   3   5 -11   15.24    5.28
   3  -5 -11    8.70    5.17
   3  -5 -10    9.81    5.17
   3   5 -10   11.76    4.39
   3  -5 -10    9.12    4.57
   3  -5  -9  280.27    9.37
   3  -5  -9  274.08    8.38
   3  -5  -9  298.76   10.74
   3   5  -9  292.61    9.47
   3  -5  -8    0.75    2.51
   3  -5  -8   -5.71    3.69
   3   5  -8    4.44    3.02
   3  -5  -8    2.00    3.08
  -3   5   7  363.83    8.06
   3  -5  -7  353.26   10.66
   3  -5  -7  350.00    8.70
   3   5  -7  368.97    9.52
   3  -5  -7  336.23    9.38
   3  -5  -6  382.65    8.66
   3  -5  -6  374.06    9.30
   3   5  -6  374.42    9.30
   3  -5  -5   52.60    2.43
   3   5  -5   47.40    2.73
   3  -5  -5   49.46    2.84
   3  -5  -4  469.02    9.51
  -3   5   4  460.87    8.52
   3  -5  -4  468.50   11.12
   3  -5  -4  473.54   10.12
  -3   5   4  477.35    9.02
   3   5  -4  470.25    9.94
   3  -5  -4  466.37    9.95
   3   5  -3 1950.93   33.81
   3  -5  -3 1791.39   33.76
  -3  -5   3 1845.05   32.74
   3  -5  -3 1847.52   34.94
   3   5  -3 1865.64   33.74
   3  -5  -3 1880.08   33.98
   3  -5  -3 1896.50   33.70
  -3   5   3 1847.72   33.21
   3   5  -3 1866.94   34.46
   3  -5  -2  197.38    5.70
   3   5  -2  208.66    4.89
   3  -5  -2  217.08    5.03
   3   5  -2  213.09    5.09
   3  -5  -2  205.59    4.90
   3   5  -1 4216.48   73.06
   3  -5  -1 4093.36   73.03
   3   5  -1 4169.17   73.96
   3   5   0  983.40   19.50
   3   5   0 1023.08   19.64
   3   5   1   12.11    1.79
   3   5   1   11.31    1.72
  -3  -5  -1   11.83    1.65
  -3  -5  -2 1132.00   21.72
   3   5   2 1091.69   21.51
   3   5   2 1092.17   21.76
   3   5   3   38.20    2.63
  -3  -5  -3   37.82    2.68
  -3  -5  -3   39.19    2.77
   3   5   4   91.82    4.26
  -3  -5  -4  104.33    4.64
  -3  -5  -5  114.73    5.23
   3   5   5  115.73    5.09
   3   5   6   11.35    3.17
   3   5   7  139.62    6.34
   3   5   8  104.67    6.17
  -3   5  -9   25.90    5.79
   3   5   9   25.67    5.30
   3   5   9   32.48    5.25
   3   6 -12  638.50   17.29
   3  -6 -11   19.40    6.41
   3   6 -11   14.44    5.33
   3  -6 -11   19.52    5.65
   3  -6 -10  124.49    6.14
   3  -6 -10  126.91    8.26
   3   6 -10  124.17    6.93
   3  -6 -10  134.60    7.18
   3  -6  -9    8.37    4.51
   3  -6  -9    9.63    3.98
   3  -6  -9   14.00    3.41
   3   6  -9    8.79    3.96
   3  -6  -8    7.79    4.04
   3   6  -8   -0.47    3.30
   3  -6  -8    5.81    3.39
   3  -6  -8    7.20    2.63
  -3   6   7  162.61    4.95
   3   6  -7  156.34    5.77
   3  -6  -7  158.47    5.36
   3  -6  -7  159.31    5.83
   3  -6  -6   63.81    3.47
   3  -6  -6   58.65    3.03
   3   6  -6   59.09    3.52
   3  -6  -5    1.94    2.30
   3   6  -5    6.70    1.90
   3  -6  -5    4.81    1.89
   3  -6  -5    3.72    1.63
   3   6  -4  504.05   11.56
  -3   6   4  500.56    9.59
   3  -6  -4  503.71   12.13
   3  -6  -4  524.72   11.28
   3   6  -4  497.82   10.60
  -3   6   4  539.23   10.16
   3  -6  -4  493.15   10.63
   3  -6  -3   83.95    3.30
   3  -6  -3   86.78    3.89
   3   6  -3   80.74    3.54
   3   6  -3   84.05    2.95
   3  -6  -3   83.11    2.91
  -3   6   3   82.68    2.80
   3  -6  -2   13.17    1.98
   3  -6  -2   11.39    1.46
   3   6  -2   14.72    1.34
   3  -6  -2   12.84    1.31
   3   6  -1  372.22    7.57
   3   6  -1  349.99    8.59
   3  -6  -1  363.67    7.48
   3   6  -1  356.83    8.63
   3   6   0  267.09    6.81
   3   6   0  254.38    6.85
   3   6   1   54.04    2.83
   3   6   1   54.32    2.97
  -3  -6  -2   92.74    3.89
   3   6   2   93.16    3.93
   3   6   2  112.56    4.22
  -3  -6  -3  401.91   10.00
   3   6   4  695.89   15.52
  -3  -6  -4  672.83   15.57
   3   6   5   22.10    3.24
   3   6   6  312.22    9.53
   3   6   7   52.94    4.85
   3   6   8  306.46   10.21
  -3  -6  -9   -4.22    5.61
  -3  -6  -9   -0.38    4.99
   3   6   9    5.65    4.72
  -3   6  -9   -0.72    5.51
   3  -7 -11   36.21    6.92
   3  -7 -11   41.38    5.90
   3  -7 -10    4.18    3.89
   3  -7 -10   -4.74    5.44
   3   7 -10   10.28    4.55
   3  -7 -10   -3.06    4.56
   3  -7  -9    4.73    4.79
   3   7  -9    0.26    3.78
   3  -7  -9    0.81    3.81
   3  -7  -9   -0.24    3.25
   3  -7  -8  179.01    6.44
   3   7  -8  189.07    6.86
   3  -7  -8  186.45    6.86
   3  -7  -7   40.39    3.65
  -3   7   7   38.76    3.04
   3  -7  -7   41.93    4.52
   3  -7  -7   48.93    3.39
   3   7  -7   44.82    3.60
   3  -7  -6  970.49   22.41
   3  -7  -6 1053.98   20.50
   3   7  -6 1027.54   20.45
   3  -7  -6 1029.37   20.48
   3  -7  -5  344.07    9.99
   3  -7  -5  350.91    8.37
  -3   7   5  369.00    7.73
   3   7  -5  345.71    8.24
   3  -7  -5  346.81    8.25
   3  -7  -5  352.82    9.12
   3  -7  -4  342.51    8.63
  -3   7   4  329.15    6.97
   3  -7  -4  348.06    9.38
   3   7  -4  342.61    7.65
   3  -7  -4  332.46    7.58
  -3   7   4  349.06    7.52
   3   7  -4  338.77    8.91
   3   7  -3   56.08    2.43
   3  -7  -3   53.90    2.36
   3  -7  -3   51.90    3.40
   3  -7  -3   55.82    3.01
  -3   7   3   54.01    2.60
   3  -7  -2   24.28    2.48
   3   7  -2   17.65    1.48
   3   7  -1  657.04   14.18
   3   7  -1  669.42   12.44
   3  -7  -1  649.69   12.37
   3   7  -1  640.67   14.16
   3   7   0  409.04    8.36
   3  -7   0  407.42    8.32
   3   7   0  412.75    9.74
   3   7   0  404.96    9.84
   3   7   1   83.08    3.64
   3   7   1   76.04    3.71
   3   7   2 1535.02   29.74
  -3  -7  -2 1547.99   30.10
   3   7   2 1568.34   30.10
  -3  -7  -3   51.74    3.62
   3   7   4  314.14    9.08
   3   7   5  189.11    7.12
   3   7   6   20.02    3.92
   3   7   7    0.32    4.09
  -3  -7  -7    9.01    4.34
   3   7   8  169.96    7.85
  -3   7  -8  155.47    7.88
  -3  -7  -8  169.62    8.31
   3   7   9    2.37    5.03
  -3  -7  -9    1.81    5.53
   3  -8 -10   51.17    5.49
   3  -8 -10   56.88    5.14
   3  -8  -9   71.64    5.01
   3  -8  -9   66.29    5.15
   3  -8  -8  146.41    7.93
   3  -8  -8  147.57    6.02
   3  -8  -8  147.41    6.10
   3  -8  -7  283.05   10.00
   3  -8  -7  289.97    8.11
   3  -8  -7  279.99    7.97
   3  -8  -6  645.75   13.96
   3  -8  -6  629.13   15.88
   3   8  -6  624.39   13.52
   3  -8  -6  633.35   13.54
   3   8  -5  122.28    5.38
   3  -8  -5  132.41    5.29
   3  -8  -5  133.08    6.02
   3  -8  -5  122.66    4.59
   3   8  -5  128.37    4.20
   3  -8  -5  124.65    4.18
   3  -8  -4  789.02   16.67
   3  -8  -4  753.01   17.25
   3  -8  -4  768.78   14.94
  -3   8   4  791.12   15.38
   3   8  -4  735.29   16.84
   3  -8  -3   21.83    2.48
  -3   8   3   23.50    2.26
   3  -8  -3   20.17    1.72
   3  -8  -3   20.39    2.78
   3   8  -2   93.33    4.30
  -3   8   2   93.40    3.79
   3   8  -1   37.59    3.00
   3  -8  -1   37.40    1.54
   3   8  -1   42.31    3.12
   3   8   0  896.92   18.99
   3  -8   0  922.59   16.81
   3   8   0  927.86   19.25
   3   8   1   31.88    2.87
   3   8   1   31.62    2.94
  -3  -8  -2   17.28    2.67
   3   8   2   20.58    2.81
   3   8   2   19.49    2.83
   3   8   3   51.69    3.55
  -3  -8  -3   53.57    3.88
  -3  -8  -4    4.75    2.85
   3   8   4    9.70    3.19
   3   8   5    6.56    3.37
   3   8   6   10.47    3.94
  -3  -8  -6    8.87    4.10
  -3  -8  -7   11.07    4.58
   3   8   7    9.45    4.38
   3   8   8  130.29    7.42
  -3  -8  -8  156.52    8.08
  -3  -8  -8  140.96    7.62
   3  -9 -10  103.55    8.54
   3  -9  -9  289.24   11.67
   3  -9  -9  288.36    9.25
   3  -9  -8    3.68    3.40
   3  -9  -8    4.54    4.98
   3  -9  -7  260.83    9.88
   3  -9  -7  266.64    8.01
   3   9  -6  243.29    8.46
   3  -9  -6  256.69    7.52
   3  -9  -6  238.67    9.07
   3  -9  -5    3.57    2.75
   3   9  -5    2.13    2.90
   3  -9  -5    0.58    3.35
   3  -9  -5    2.76    2.37
  -3   9   4   15.76    2.43
   3   9  -4   11.20    2.96
   3  -9  -4   10.45    3.22
   3  -9  -4   15.14    2.70
   3  -9  -3  405.39   10.37
   3  -9  -3  413.91   10.72
  -3   9   3  409.68    9.64
   3   9  -2   21.69    2.87
  -3   9   2   16.58    2.61
   3   9  -2   20.24    2.85
   3   9  -1   19.39    2.81
   3   9  -1   22.24    2.88
   3   9   0  103.11    4.66
   3   9   0  107.57    4.94
   3   9   1  127.65    5.17
   3   9   1  122.02    5.33
  -3  -9  -2  265.41    8.22
   3   9   2  253.47    7.77
   3   9   2  260.53    8.13
   3   9   3   85.60    4.52
  -3  -9  -3  101.28    5.30
   3   9   3   95.08    5.07
  -3  -9  -4   12.45    3.42
  -3  -9  -4    7.04    3.46
  -3  -9  -5 1071.41   23.64
   3   9   5 1040.04   23.28
   3   9   6  127.05    6.85
  -3  -9  -6  134.19    7.11
   3   9   7  129.86    7.21
  -3  -9  -7  128.16    7.24
   3   9   8   20.85    5.41
   3 -10  -9  201.49   10.22
   3  10  -8   14.99    4.77
   3 -10  -8   25.12    5.61
   3 -10  -8   14.52    3.94
   3 -10  -7  235.63    9.72
   3 -10  -7  236.29    7.64
   3  10  -7  215.07    8.70
   3 -10  -6  183.71    8.22
   3  10  -6  203.86    8.02
   3 -10  -6  190.74    6.65
   3 -10  -5   16.16    3.37
   3 -10  -5   13.33    3.97
   3  10  -5   12.99    3.62
   3 -10  -5   18.00    3.08
   3 -10  -4   29.61    3.50
  -3  10   4   29.76    3.07
   3 -10  -4   36.47    4.14
   3 -10  -3   94.42    4.87
   3 -10  -3   99.69    5.14
  -3  10   3  103.69    4.46
   3  10  -2  217.15    7.44
   3  10  -2  220.67    7.50
  -3  10   2  220.66    6.78
   3  10  -1  259.19    8.27
   3  10  -1  273.41    8.53
  -3  10   1  275.87    8.00
   3  10   0    5.38    2.77
   3  10   0    4.10    2.86
   3  10   1  217.97    7.31
   3  10   1  228.09    7.71
   3  10   2   41.75    4.13
  -3 -10  -2   42.25    3.91
   3  10   2   45.37    4.01
  -3 -10  -3   84.46    5.37
   3  10   3   89.16    4.85
   3  10   3   86.76    5.18
  -3 -10  -4  248.21    8.83
  -3 -10  -4  231.83    8.70
   3  10   5   43.40    4.91
  -3 -10  -5   49.09    5.22
   3  10   6   28.19    4.98
  -3 -10  -6   31.27    5.33
   3  10   7    4.16    4.84
  -3 -10  -7   -1.48    4.99
   3 -11  -9   71.58    7.83
   3  11  -9   70.35    6.78
   3  11  -8    7.50    5.21
   3 -11  -8    7.73    5.56
   3 -11  -7  110.68    7.50
   3  11  -7  109.91    6.98
   3  11  -6    8.21    4.37
   3 -11  -6    4.21    4.58
   3 -11  -6    2.01    3.23
   3 -11  -5    3.48    3.41
   3 -11  -5    0.32    4.12
   3  11  -5   10.09    4.13
   3 -11  -5    1.47    2.95
   3 -11  -4   93.13    5.40
   3 -11  -4  103.61    5.83
   3 -11  -3  421.76   11.46
  -3  11   3  417.29   10.52
   3  11  -3  415.21   11.74
   3  11  -2  269.49    9.04
   3  11  -2  286.71    9.11
  -3  11   2  289.79    8.44
  -3  11   1 1308.46   26.12
   3  11  -1 1237.22   26.62
   3  11  -1 1296.64   26.93
   3  11   0  175.93    6.88
   3  11   0  185.75    7.25
   3  11   1   16.83    3.50
   3  11   1   11.78    3.60
   3  11   2   31.39    4.01
   3  11   2   36.53    4.43
  -3 -11  -2   24.53    4.29
  -3 -11  -3   29.32    4.52
   3  11   3   17.29    4.17
   3  11   3   27.52    3.83
  -3 -11  -4    7.90    4.07
  -3 -11  -4   14.95    4.46
  -3 -11  -5   78.00    6.25
   3  11   5   61.61    5.75
   3  11   6   12.29    4.99
  -3 -11  -6   15.35    5.38
   3  12  -8   20.59    5.69
   3 -12  -8    8.93    6.04
   3 -12  -7  113.36    7.87
   3  12  -7  128.07    7.71
   3 -12  -6    6.81    5.05
   3  12  -6   10.91    4.66
   3 -12  -5    5.32    3.92
   3 -12  -5   -1.60    4.59
   3 -12  -5    0.45    3.28
   3 -12  -4   58.39    5.00
   3 -12  -4   55.22    5.15
   3  12  -3    6.04    3.98
   3  12  -3    8.48    3.85
   3 -12  -3    0.86    3.39
   3  12  -2    5.31    3.79
   3  12  -2    4.26    3.72
  -3  12   2   11.97    3.67
   3  12  -1  106.28    5.94
   3  12  -1   94.73    5.88
  -3  12   1  109.56    5.67
   3  12   0  109.92    5.91
   3  12   0  106.63    6.28
  -3  12   0  113.22    6.10
   3  12   1   28.84    4.35
   3  12   1   26.73    4.12
  -3 -12  -1   27.06    4.46
  -3 -12  -2    5.91    4.04
   3  12   2    5.39    3.89
   3  12   2   11.80    4.23
  -3 -12  -3  201.30    7.93
  -3 -12  -3  213.98    8.81
   3  12   3  199.98    7.58
   3  12   3  204.27    8.42
  -3 -12  -4   34.27    5.13
  -3 -12  -4   27.41    5.15
   3  12   5   73.37    6.33
  -3 -12  -5   79.74    6.59
  -3 -12  -6  113.44    8.26
   3  13  -7    8.71    5.53
   3 -13  -7    0.39    5.94
   3 -13  -6  340.26   11.83
   3  13  -6  345.35   11.91
   3 -13  -5   87.80    6.23
   3 -13  -5   84.10    6.43
   3  13  -4   40.10    5.48
   3 -13  -4   41.53    4.98
   3  13  -3   58.87    5.76
   3 -13  -3   63.79    5.42
   3  13  -3   59.08    5.63
   3  13  -2    6.09    4.33
   3 -13  -2    8.23    4.00
  -3  13   2    9.66    4.02
   3  13  -2    3.60    4.10
   3  13  -1   14.69    4.60
   3  13  -1    9.54    4.17
  -3  13   1    8.88    3.99
   3  13   0   54.70    5.24
   3  13   0   68.71    5.78
  -3  13   0   65.07    5.50
   3  13   1   31.54    4.97
  -3 -13  -1   27.10    4.86
   3  13   1   23.01    4.32
  -3  13  -1   25.50    4.81
  -3 -13  -2  276.44   10.33
   3  13   2  282.45    9.52
   3  13   2  285.39   10.11
   3  13   3   15.78    5.03
  -3 -13  -3   15.09    4.93
  -3 -13  -4  135.23    7.81
  -3 -13  -4  130.72    7.73
   3 -14  -5  185.09    8.43
   3 -14  -4  228.22    9.25
   3  14  -4  228.53    9.48
   3  14  -4  221.24    9.55
   3 -14  -3   59.69    5.69
   3  14  -3   66.56    6.30
   3  14  -3   50.98    6.02
   3  14  -2   23.64    5.30
   3 -14  -2   31.46    4.91
   3  14  -2   21.49    5.00
   3  14  -1   34.45    5.49
  -3  14   1   40.27    5.09
   3  14  -1   39.11    5.27
   3  14   0  246.13    9.38
   3  14   0  267.24    9.99
  -3  14   0  262.08    9.45
  -3  14  -1   66.89    6.14
   3  14   1   80.72    6.02
  -3 -14  -1   66.38    6.44
   3  14   1   74.13    6.44
  -3 -14  -2    4.35    4.95
  -3  14  -2    8.83    5.14
   3  14   2    7.58    5.01
   3  14   3    2.72    5.16
  -3  14  -3    5.19    5.59
   3 -15  -3   21.12    5.22
   3 -15  -2    1.35    4.80
   3  15  -2    1.87    5.54
   3  15  -2    4.53    5.00
   3  15  -1   -5.23    5.49
   3  15  -1   -1.36    4.85
   3  15   0   78.25    6.47
   3  15   0   93.04    7.13
  -3  15   0  100.69    6.88
  -3  15  -1  100.26    7.19
   4   0 -12   14.89    5.86
   4   0 -11    1.37    4.39
   4   0 -11   -1.63    4.57
   4   0 -10 1778.18   35.46
   4   0 -10 1702.83   36.09
   4   0  -9   -0.63    3.05
   4   0  -9   -0.27    3.18
   4   0  -8  696.13   15.90
   4   0  -8  686.38   16.18
   4   0  -7    1.66    2.33
   4   0  -7    3.34    2.23
   4   0  -6  185.38    4.11
   4   0  -6  185.23    5.72
   4   0  -6  172.74    5.61
   4   0  -5    0.59    0.85
   4   0  -5    1.53    1.48
   4   0  -5    0.80    1.37
   4   0  -5    0.16    0.69
   4   0  -5    0.45    1.51
   4   0  -4  213.05    4.49
   4   0  -4  212.56    5.59
   4   0  -4  213.01    5.64
   4   0  -4  206.55    4.13
   4   0  -4  205.18    5.54
   4   0  -3   -0.52    0.80
   4   0  -3    0.23    1.13
   4   0  -3    0.27    0.43
   4   0  -3    1.51    1.11
   4   0  -2  802.18   14.51
   4   0  -2  770.31   15.71
   4   0  -2  826.49   14.68
   4   0  -2  808.77   15.86
   4   0  -1    0.91    0.86
   4   0  -1    0.34    0.78
  -4   0   1    0.47    0.66
   4   0   0   83.18    2.76
  -4   0   0   88.57    2.53
   4   0   1   -0.11    1.10
   4   0   1   -0.76    1.16
  -4   0  -1    0.63    1.09
   4   0   2   -1.22    1.41
  -4   0  -2    0.24    1.26
   4   0   3    1.70    1.50
  -4   0  -3    0.15    1.60
   4   0   4   57.60    3.37
  -4   0  -4   59.68    3.47
   4   0   4   62.16    3.49
   4   0   5   -0.69    2.46
   4   0   5   -0.23    2.35
  -4   0  -5    1.56    2.33
   4   0   6 1430.24   28.88
   4   0   6 1387.50   28.74
   4   0   7    3.57    3.41
   4   0   7   -2.36    3.33
   4   0   8    3.61    4.17
   4   0   8    4.16    4.18
   4   0   9   -1.77    4.74
   4  -1 -12    7.73    5.34
   4   1 -12   16.50    5.93
   4   1 -11   29.15    4.81
   4   1 -11   28.72    5.26
   4  -1 -11   27.39    5.22
   4   1 -10   25.85    4.11
   4  -1 -10   26.17    4.43
   4   1 -10   38.00    4.88
   4  -1  -9    8.45    3.47
   4   1  -9    7.44    3.03
   4   1  -9    3.43    3.33
   4   1  -8   86.82    4.49
   4  -1  -8   88.33    4.85
   4   1  -8   76.59    4.58
   4  -1  -7   15.06    0.91
   4  -1  -7   21.58    2.80
   4   1  -7   16.03    2.48
  -4   1   7   20.42    1.45
   4   1  -7   16.00    2.59
   4  -1  -6   -0.03    0.47
  -4   1   6    2.12    0.82
   4  -1  -6    0.39    1.92
   4   1  -6    1.38    1.77
   4  -1  -6    0.29    0.48
   4   1  -6    2.95    1.89
   4  -1  -6    0.93    0.61
   4  -1  -5 1058.88   20.21
  -4   1   5  992.02   17.60
   4  -1  -5 1031.45   17.80
   4   1  -5  971.44   17.64
   4   1  -5 1041.63   20.06
   4   1  -5 1036.84   19.62
   4   1  -5 1020.12   18.60
   4   1  -5 1022.56   19.92
   4   1  -5 1026.66   18.36
   4   1  -4 2096.62   37.12
   4  -1  -4 2078.37   38.36
   4   1  -4 2097.19   38.23
   4   1  -4 2061.94   38.10
   4   1  -4 2073.75   36.80
   4   1  -3    5.52    0.90
  -4   1   3    5.95    0.62
   4   1  -3    6.79    1.06
   4   1  -3    5.43    1.25
  -4   1   3    5.86    0.44
   4   1  -3    5.66    0.68
   4   1  -3    7.39    1.26
   4   1  -2  726.52   14.61
   4   1  -2  748.30   14.15
   4   1  -2  746.20   14.77
   4   1  -2  744.22   13.63
   4   1  -2  734.06   13.87
   4  -1  -1  304.93    6.25
   4   1  -1  295.49    6.33
  -4   1   1  294.76    5.72
   4  -1  -1  306.00    6.33
   4  -1   0  267.88    5.29
   4  -1   0  290.49    6.38
   4  -1   0  284.48    6.28
   4   1   0  286.44    6.35
  -4   1   0  281.04    5.82
  -4  -1   0  289.79    6.12
   4  -1   1 4319.30   75.94
   4  -1   1 4259.11   76.04
   4   1   1 4216.93   76.02
  -4   1  -1 4288.22   75.50
  -4  -1  -1 4356.13   75.75
   4  -1   2  115.18    4.01
  -4  -1  -2  120.72    3.91
  -4   1  -2  124.15    3.88
   4   1   3  157.76    5.05
  -4   1  -3  160.85    4.96
  -4  -1  -3  152.04    4.92
   4  -1   3  148.32    5.00
   4   1   4 1174.52   23.54
   4  -1   4 1168.48   23.59
   4   1   4 1166.31   23.47
  -4   1  -4 1159.80   23.28
  -4  -1  -4 1200.49   23.49
   4  -1   4 1140.41   23.48
   4  -1   5   26.05    3.03
   4   1   5   34.27    3.37
   4  -1   5   31.60    3.28
  -4  -1  -5   32.17    3.25
   4   1   5   31.24    3.09
   4   1   6  410.15   11.15
   4   1   6  408.35   11.14
  -4  -1  -6  398.17   11.06
   4  -1   6  394.15   11.07
   4  -1   6  395.32   11.08
   4  -1   7    1.80    3.61
   4   1   7    5.67    3.67
   4   1   7   -0.87    3.43
  -4  -1  -7    1.82    3.66
   4  -1   8    9.94    4.46
   4   1   8   13.49    4.42
   4   1   8   15.12    4.48
   4   1   9   33.91    5.38
   4  -2 -13  114.80    8.80
   4  -2 -12   45.82    6.78
   4   2 -12   35.80    6.67
   4  -2 -12   37.81    6.48
   4  -2 -11   51.70    6.21
   4   2 -11   52.42    6.05
   4  -2 -11   55.60    6.22
   4   2 -10    7.71    3.59
   4   2 -10    2.12    3.92
   4  -2 -10    6.63    4.21
   4  -2 -10    6.13    4.18
   4   2  -9    4.00    3.30
   4  -2  -9   -0.66    3.43
   4  -2  -9    5.60    3.52
   4   2  -9    3.64    2.92
   4   2  -8  174.43    5.87
   4  -2  -8  179.18    6.92
   4   2  -8  158.64    6.39
   4  -2  -8  166.58    6.55
  -4   2   7  317.31    6.66
   4   2  -7  311.24    8.00
   4  -2  -7  313.23    9.12
   4   2  -7  321.39    8.80
   4  -2  -7  311.51    8.77
   4   2  -6  172.34    5.01
   4  -2  -6  166.58    5.82
   4   2  -6  159.54    5.41
   4  -2  -6  155.82    5.38
   4   2  -5 2046.67   37.61
   4  -2  -5 2029.40   37.62
   4  -2  -5 2046.35   37.99
   4   2  -5 2034.30   37.45
   4  -2  -5 2004.85   37.42
   4   2  -5 1991.57   36.29
   4   2  -4  976.61   17.95
  -4   2   4  937.75   16.59
   4  -2  -4  964.11   19.06
   4   2  -4  970.65   18.65
   4  -2  -4  945.88   18.61
   4   2  -4  961.45   18.57
   4  -2  -4  935.55   18.53
   4   2  -4  960.63   17.66
   4   2  -3   35.58    1.81
   4  -2  -3   33.61    1.99
   4   2  -3   34.62    1.98
   4   2  -3   32.27    1.99
   4  -2  -3   32.42    1.94
  -4   2   3   27.26    0.92
   4   2  -3   34.51    1.64
   4  -2  -2 2429.99   44.88
   4   2  -2 2509.83   44.60
   4   2  -2 2537.14   45.11
   4  -2  -2 2482.73   45.01
   4   2  -2 2509.31   44.96
   4   2  -2 2493.08   44.37
   4   2  -1    3.26    1.07
   4   2  -1    1.72    0.94
   4   2   0 1957.56   35.29
  -4  -2   0 1937.18   34.68
   4  -2   1  885.73   17.28
   4  -2   1  883.64   17.20
  -4  -2  -1  866.70   17.02
   4  -2   2  625.86   13.41
  -4  -2  -2  656.57   13.42
  -4  -2  -3  404.85    9.46
   4  -2   3  370.77    9.47
   4   2   3  406.73    9.63
   4  -2   4   20.92    2.62
   4  -2   4   15.82    2.48
   4   2   4   19.54    2.59
  -4  -2  -4   17.45    2.46
   4  -2   5    8.58    2.59
   4   2   5    7.88    2.60
  -4  -2  -5   10.03    2.77
   4  -2   6   -0.27    3.01
   4   2   6    1.88    3.04
   4   2   6    5.57    3.02
  -4  -2  -6    4.07    3.13
   4   2   7   87.67    5.57
  -4  -2  -7   87.43    5.67
   4   2   7   78.59    5.42
   4   2   8   54.99    5.41
   4   2   8   54.83    5.41
   4   2   9   11.34    5.10
   4   2   9   10.27    4.77
   4   3 -12   18.64    6.03
   4  -3 -12   20.38    6.19
   4  -3 -12   24.00    6.64
   4  -3 -11  546.45   16.27
   4   3 -11  562.75   15.78
   4  -3 -11  545.48   15.75
   4  -3 -10   14.66    4.69
   4   3 -10   15.86    4.36
   4  -3 -10   20.84    4.64
   4  -3  -9  112.87    6.45
   4   3  -9  120.90    6.09
   4  -3  -9  116.51    6.13
   4   3  -8   52.69    3.39
   4  -3  -8   56.64    4.53
   4   3  -8   51.40    4.02
   4  -3  -8   53.66    4.15
   4   3  -7  478.31   10.58
   4  -3  -7  477.79   12.39
   4   3  -7  475.98   11.70
   4  -3  -7  484.09   11.78
   4  -3  -6   35.02    3.01
  -4   3   6   34.06    1.39
   4   3  -6   36.91    2.89
   4  -3  -6   37.35    2.85
   4  -3  -5  419.69   10.22
   4  -3  -5  398.24    8.15
   4   3  -5  412.82    9.54
   4  -3  -5  413.80    9.55
   4   3  -5  432.38    9.00
   4   3  -4    1.75    1.20
   4   3  -4    2.71    1.52
   4  -3  -4    3.49    1.63
   4  -3  -4    1.91    1.38
   4  -3  -4    1.86    0.68
   4   3  -4    4.05    1.32
   4  -3  -4    2.42    1.36
   4   3  -3  148.08    4.13
   4   3  -3  139.62    4.15
   4  -3  -3  131.45    4.09
   4   3  -3  142.55    4.22
   4  -3  -3  142.65    4.18
   4   3  -3  142.13    3.95
   4  -3  -2   26.57    1.11
   4  -3  -2   29.17    1.89
   4   3  -2   27.18    1.81
   4   3  -2   26.08    1.91
   4  -3  -2   26.54    1.91
   4   3  -2   31.13    1.89
   4   3  -2   24.76    1.73
   4   3  -1 1097.58   20.76
  -4  -3   0   25.61    1.62
   4   3   0   26.96    1.85
  -4  -3  -1  467.60    9.78
  -4  -3  -2    4.78    1.59
  -4  -3  -3  139.12    4.89
   4   3   3  139.20    4.88
   4   3   4  112.29    4.84
  -4  -3  -4  131.72    4.99
   4   3   5   18.31    2.86
  -4  -3  -5   22.55    3.11
   4   3   6    6.16    3.06
  -4  -3  -6    3.61    3.19
   4   3   7  967.53   22.19
  -4  -3  -7 1012.51   22.54
   4   3   7  998.28   22.19
   4   3   8   39.56    5.19
   4   3   8   37.62    5.13
  -4  -3  -8   23.30    4.79
   4   3   9  387.81   12.00
   4   3   9  354.07   11.97
   4  -4 -12   46.30    7.13
   4   4 -12   53.33    6.88
   4  -4 -12   50.81    6.74
   4  -4 -11   79.75    7.39
   4   4 -11   85.23    6.82
   4  -4 -11   96.62    7.02
   4  -4 -10   28.68    5.38
   4   4 -10   32.45    4.82
   4  -4 -10   26.04    4.97
   4  -4  -9    8.68    3.97
   4   4  -9    8.22    3.62
   4  -4  -9    7.15    3.69
   4  -4  -8    0.33    3.04
   4   4  -8    5.56    2.96
   4  -4  -8    1.78    2.83
   4  -4  -7 1018.31   22.42
   4  -4  -7 1018.25   19.86
   4   4  -7 1063.55   21.45
   4  -4  -7 1025.80   21.38
  -4   4   6   23.69    1.47
   4  -4  -6   20.50    2.77
   4  -4  -6   24.48    1.84
   4   4  -6   26.32    2.60
   4  -4  -6   24.86    2.54
   4  -4  -5 1859.62   36.09
   4  -4  -5 1870.75   33.57
   4   4  -5 1905.62   35.01
   4  -4  -5 1900.00   35.02
   4   4  -5 1865.44   34.70
   4  -4  -4  748.92   13.24
  -4   4   4  689.87   12.82
  -4   4   4  713.42   12.74
   4   4  -4  745.67   14.70
   4  -4  -4  730.71   14.63
   4   4  -4  797.77   14.83
   4  -4  -4  765.18   14.81
   4   4  -4  772.23   14.65
   4   4  -3   71.30    2.95
   4  -4  -3   66.56    3.26
   4  -4  -3   68.79    2.31
   4   4  -3   69.86    2.78
   4  -4  -3   69.92    2.85
   4  -4  -3   69.44    1.74
   4   4  -3   72.19    2.94
   4  -4  -3   68.49    2.85
   4   4  -3   73.77    2.88
   4  -4  -2  147.73    3.55
   4   4  -2  145.58    4.19
   4  -4  -2  143.65    4.20
   4   4  -2  149.62    4.41
   4  -4  -2  141.87    4.28
   4   4  -2  147.05    4.31
   4   4  -1   15.85    1.55
   4   4   0 1042.20   20.37
  -4  -4  -1  761.26   15.10
   4   4   1  746.21   15.44
   4   4   2  222.11    6.36
  -4  -4  -2  217.46    5.96
  -4  -4  -2  226.44    6.30
   4   4   3 1139.35   22.75
  -4  -4  -3 1117.54   22.74
   4   4   4   15.10    2.53
  -4  -4  -4   12.48    2.57
   4   4   5   -0.75    2.50
  -4  -4  -5    3.74    2.71
   4   4   6   53.70    4.40
  -4  -4  -6   57.69    4.64
  -4  -4  -7   63.95    5.28
   4   4   7   66.69    5.25
   4   4   8   20.24    4.87
  -4  -4  -8   18.90    4.87
   4   4   8   26.64    4.96
   4   4   9   15.53    5.44
   4   4   9   17.91    4.99
  -4  -4  -9   21.34    5.72
   4  -5 -12   -3.10    6.61
   4   5 -12   -4.64    5.77
   4  -5 -12    4.83    5.74
   4  -5 -11    9.21    5.69
   4   5 -11   -2.87    4.75
   4  -5 -11    7.78    5.16
   4  -5 -10    8.90    4.90
   4   5 -10   14.51    4.55
   4  -5 -10   13.87    4.63
   4  -5  -9    5.19    4.28
   4   5  -9    6.53    3.69
   4  -5  -9    2.02    3.47
   4  -5  -8   21.15    3.95
   4  -5  -8    9.15    3.22
   4  -5  -8   20.06    2.62
   4   5  -8   23.50    3.65
   4  -5  -7  206.80    7.86
   4  -5  -7  210.67    5.73
   4   5  -7  202.51    6.75
   4  -5  -7  208.32    6.83
   4   5  -6   13.89    2.39
   4  -5  -6   17.17    2.46
   4  -5  -6   16.30    1.77
   4  -5  -5  746.28   14.22
   4   5  -5  762.91   15.44
   4  -5  -5  727.61   15.35
   4   5  -5  755.19   15.56
   4   5  -4  383.62    8.66
   4  -5  -4  373.33    8.71
   4  -5  -4  375.26    9.71
   4  -5  -4  369.67    8.33
   4  -5  -4  380.16    7.58
   4   5  -4  371.01    8.62
   4  -5  -4  377.10    8.60
  -4   5   4  383.17    7.27
   4   5  -4  369.48    8.84
   4   5  -3  156.22    4.89
   4  -5  -3  153.58    5.27
   4  -5  -3  159.34    4.25
   4   5  -3  159.79    4.48
   4  -5  -3  148.09    4.42
   4   5  -3  164.31    4.68
   4  -5  -3  168.14    4.65
   4   5  -3  146.21    4.70
   4  -5  -2  268.05    6.35
   4   5  -2  267.06    6.36
   4   5  -2  264.31    6.77
   4   5  -1  506.97   10.53
   4   5  -1  499.84   11.04
   4  -5  -1  493.88   10.49
   4   5   0   23.45    2.14
   4   5   0   30.38    2.22
  -4  -5  -1 2567.06   46.52
   4   5   1 2496.35   46.81
   4   5   1 2586.94   46.92
  -4  -5  -2  124.93    4.42
   4   5   2  114.52    4.46
   4   5   3   20.64    2.49
  -4  -5  -3   14.07    2.35
   4   5   4  463.35   11.74
  -4  -5  -4  478.44   11.97
   4   5   5    0.53    2.83
  -4  -5  -5    2.39    2.72
   4   5   6   93.15    5.50
  -4  -5  -6  104.26    5.84
   4   5   7    1.87    3.75
  -4  -5  -7    1.67    4.09
   4   5   8    9.81    4.54
   4   5   8   10.45    4.61
  -4  -5  -8    9.88    4.86
   4   5   9  133.63    7.76
   4   6 -12   23.33    5.99
   4  -6 -12   24.42    6.22
   4  -6 -11    8.55    6.37
   4   6 -11   -0.34    4.96
   4  -6 -11    4.23    5.12
   4  -6 -10 1034.85   25.14
   4   6 -10 1024.46   22.83
   4  -6 -10  997.48   22.87
   4  -6  -9   45.61    5.75
   4   6  -9   38.36    4.35
   4  -6  -9   43.40    4.60
   4  -6  -9   39.54    3.59
   4  -6  -8  795.21   19.48
   4  -6  -8  779.46   16.34
   4   6  -8  783.38   17.53
   4  -6  -8  779.68   17.55
   4   6  -7   23.16    3.08
   4  -6  -7   14.14    2.94
   4  -6  -7   20.36    2.41
   4   6  -6  270.12    7.69
   4  -6  -6  268.26    6.48
   4   6  -6  267.92    7.36
   4  -6  -6  257.75    7.30
   4  -6  -5  165.73    6.19
   4  -6  -5  163.82    4.36
   4   6  -5  156.16    4.99
   4  -6  -5  154.20    4.99
   4   6  -5  165.78    5.52
   4  -6  -4   71.99    3.12
   4  -6  -4   76.10    4.02
   4  -6  -4   74.25    2.56
   4   6  -4   71.31    3.20
   4  -6  -4   70.99    3.18
  -4   6   4   72.43    2.39
   4   6  -4   72.87    3.49
   4  -6  -3   42.29    2.35
   4  -6  -3   40.22    3.00
   4   6  -3   43.20    2.50
   4  -6  -3   41.23    2.51
   4   6  -3   40.67    2.24
   4  -6  -3   38.28    2.26
   4   6  -3   34.99    2.60
  -4   6   3   36.26    1.97
   4   6  -2 1271.13   25.21
   4   6  -2 1334.55   24.18
   4  -6  -2 1302.69   24.12
   4   6  -2 1252.58   25.08
   4  -6  -1   47.29    2.38
   4   6  -1   43.63    2.31
   4   6  -1   45.13    2.77
   4   6   0   60.03    3.14
   4   6   0   56.22    3.11
   4   6   1   46.65    3.03
  -4  -6  -1   50.15    2.93
   4   6   1   53.04    3.21
  -4  -6  -2   26.26    2.63
   4   6   2   31.09    2.83
  -4  -6  -3  149.64    5.47
   4   6   3  144.07    5.63
  -4  -6  -3  151.27    5.72
   4   6   4   90.45    4.78
  -4  -6  -4   95.53    5.05
   4   6   5   51.87    4.37
  -4  -6  -5   60.16    4.68
   4   6   6  804.00   18.89
  -4  -6  -6  784.17   18.76
   4   6   7   27.24    4.59
  -4  -6  -7   23.26    4.80
   4   6   8    1.03    4.58
  -4  -6  -8   -1.13    4.79
   4  -7 -11  115.93    9.09
   4   7 -11   91.42    6.75
   4  -7 -11  105.32    7.12
   4  -7 -10   12.94    5.62
   4   7 -10   10.74    4.37
   4  -7 -10   14.64    4.70
   4  -7  -9   31.36    5.62
   4   7  -9   25.28    4.30
   4  -7  -9   22.38    4.18
   4  -7  -9   23.56    3.46
   4  -7  -8   95.82    4.42
   4   7  -8   94.04    5.12
   4  -7  -8   93.66    5.08
   4  -7  -7   88.76    5.91
   4  -7  -7   90.93    3.87
   4   7  -7   88.36    4.44
   4  -7  -7   94.31    4.62
   4   7  -6   18.90    2.68
   4   7  -6   17.02    3.03
   4  -7  -6   11.67    3.45
   4  -7  -6   18.71    2.71
   4  -7  -6   21.44    2.37
   4  -7  -5  513.67   13.05
   4  -7  -5  536.90   10.81
   4   7  -5  520.16   11.28
   4  -7  -5  482.09   11.09
   4   7  -5  500.93   12.15
   4  -7  -4 1067.71   20.76
   4  -7  -4  984.60   21.76
   4   7  -4 1061.91   20.20
   4  -7  -4 1032.66   20.05
  -4   7   4 1039.24   19.43
   4   7  -4 1038.52   21.31
   4  -7  -3   96.21    4.52
   4  -7  -3  106.77    3.95
   4  -7  -3  103.65    3.61
   4   7  -3  108.50    4.44
   4   7  -3  107.50    3.50
  -4   7   3  109.83    3.56
   4  -7  -3   96.59    3.48
   4   7  -2  447.21   10.87
   4   7  -2  468.44    9.58
   4  -7  -2  451.51    9.50
   4   7  -1    3.04    1.77
   4   7  -1   -1.08    1.42
   4  -7  -1   -0.40    1.43
   4   7   0  202.99    5.45
   4  -7   0  213.30    5.51
   4   7   0  216.99    6.43
   4   7   0  205.29    6.43
  -4  -7  -1  392.93    9.93
   4   7   1  406.75   10.09
   4   7   1  397.36   10.13
   4   7   2    0.22    2.39
  -4  -7  -2    3.99    2.23
   4   7   2    3.04    2.30
   4   7   3  111.56    5.14
  -4  -7  -3  119.26    5.16
  -4  -7  -3  111.77    5.22
   4   7   4  923.55   20.38
  -4  -7  -4  917.97   20.43
  -4  -7  -5   61.37    4.90
   4   7   5   60.31    4.95
   4   7   6  229.09    8.78
  -4  -7  -6  244.98    9.01
   4   7   7  125.64    7.11
   4   7   8    4.91    4.95
   4  -8 -11   17.86    6.84
   4  -8 -10   25.60    4.93
   4  -8  -9    7.15    3.89
   4   8  -8  182.64    7.35
   4  -8  -8  178.90    8.69
   4  -8  -8  173.57    6.05
   4  -8  -8  183.54    6.73
   4  -8  -7  176.43    8.05
   4  -8  -7  182.44    5.75
   4  -8  -7  175.69    6.16
   4   8  -7  182.86    7.15
   4  -8  -6  191.56    7.95
   4  -8  -6  209.28    5.99
   4   8  -6  209.81    6.22
   4  -8  -6  203.42    6.13
   4   8  -6  210.38    7.33
   4  -8  -5  254.59    7.57
   4  -8  -5  256.07    8.64
   4  -8  -5  273.28    6.71
   4   8  -5  255.20    6.76
   4  -8  -5  250.47    6.67
   4   8  -5  255.36    7.99
   4  -8  -4  420.96   10.04
   4  -8  -4  388.80   10.80
   4   8  -4  407.47    9.03
   4  -8  -4  403.03    8.92
  -4   8   4  406.29    8.82
   4   8  -4  376.02   10.31
   4   8  -3  279.20    8.17
   4   8  -3  274.90    8.09
   4  -8  -3  283.12    7.59
  -4   8   3  292.78    7.05
   4   8  -2 1399.40   27.88
   4  -8  -2 1397.97   25.55
   4  -8  -1  309.76    6.79
   4   8  -1  307.32    8.53
   4   8  -1  306.10    8.58
   4  -8   0  730.56   14.37
   4   8   0  747.09   14.45
   4   8   0  726.49   16.06
   4   8   0  715.52   16.20
  -4  -8  -1  114.08    5.01
   4   8   1  125.88    5.20
   4   8   1  132.89    5.41
  -4  -8  -2  335.57    9.51
   4   8   2  365.94    9.54
   4   8   2  328.38    9.53
  -4  -8  -3   38.02    3.70
   4   8   4   13.65    3.48
  -4  -8  -4   11.84    3.55
   4   8   5    2.80    3.63
  -4  -8  -5    0.32    3.70
   4   8   6   11.57    4.42
   4   8   7   11.99    4.90
   4   9 -11  161.90    8.26
   4   9 -10   30.26    5.35
   4  -9 -10   28.29    6.77
   4   9  -9   32.05    5.02
   4  -9  -9   29.83    6.14
   4  -9  -8  138.52    8.11
   4   9  -8  131.69    6.81
   4  -9  -7  105.96    6.71
   4  -9  -7   97.97    4.55
   4   9  -7  117.98    6.18
   4  -9  -6   51.71    5.00
   4  -9  -6   48.05    3.40
   4   9  -6   53.28    4.47
   4  -9  -5  218.01    7.09
   4  -9  -5  211.28    8.08
   4  -9  -5  212.42    6.13
   4   9  -5  218.68    7.62
   4  -9  -4  109.78    4.88
   4  -9  -4  112.12    5.67
   4   9  -4  118.09    5.43
  -4   9   3   28.83    2.80
   4  -9  -3   27.95    2.97
   4   9  -3   30.21    3.42
  -4   9   2   64.87    3.69
   4   9  -2   77.34    4.35
   4   9  -1  367.82    9.90
   4   9  -1  348.71    9.89
   4   9   0    2.72    2.53
   4   9   0    4.42    2.71
   4   9   1   33.26    3.54
   4   9   1   34.54    3.55
  -4  -9  -1   35.10    3.48
   4   9   2   71.57    4.43
   4   9   2   77.36    4.78
  -4  -9  -2   66.63    4.42
  -4  -9  -3   74.11    4.83
   4   9   4  266.31    9.17
   4   9   5   -0.65    3.98
   4   9   6   47.87    5.41
   4   9   7  349.65   11.82
   4  10 -10  155.08    8.17
   4  10  -9   31.78    5.39
   4 -10  -9   29.13    6.75
   4 -10  -8   -2.97    5.36
   4  10  -8   -1.30    4.36
   4 -10  -7  279.88   10.54
   4  10  -7  285.21    9.85
   4  10  -6   20.18    4.26
   4 -10  -6    6.70    4.23
   4 -10  -5  534.21   14.06
   4 -10  -5  505.38   11.60
   4 -10  -5  502.04   12.79
   4  10  -5  510.33   13.47
   4 -10  -4  178.25    7.20
   4 -10  -4  175.04    6.50
   4  10  -4  180.28    7.13
  -4  10   3    4.98    2.50
   4 -10  -3    8.35    2.87
   4  10  -3    9.12    3.19
   4  10  -2   -3.25    3.05
  -4  10   2    5.08    2.75
   4  10  -2   -0.27    2.90
   4  10  -1  118.24    5.59
   4  10  -1  111.91    5.62
   4  10   0   96.01    5.14
   4  10   0   93.84    5.23
  -4 -10  -1  186.61    7.27
   4  10   1  205.88    7.28
   4  10   1  190.99    7.30
   4  10   2    4.87    3.52
  -4 -10  -2    7.01    3.31
   4  10   2    4.32    3.19
  -4 -10  -3  518.71   13.85
  -4 -10  -4   -0.97    3.61
   4  10   4    0.66    3.93
   4  10   5    3.10    4.22
   4  10   6  127.75    7.49
  -4 -10  -6  130.38    7.68
   4  11  -9    5.23    5.24
   4 -11  -9   -1.39    6.35
   4  11  -8   -3.11    4.86
   4 -11  -8    1.29    5.43
   4 -11  -7  191.47    9.18
   4  11  -7  183.77    8.35
   4 -11  -6    0.72    4.68
   4  11  -6    1.64    4.09
   4 -11  -5   80.94    5.17
   4 -11  -5   79.74    5.92
   4  11  -5   92.30    5.94
   4  11  -4    3.98    3.81
   4 -11  -4    2.84    3.27
   4  11  -4   -2.19    3.53
   4 -11  -3   55.14    4.22
   4  11  -3   58.44    4.97
   4  11  -2   25.90    4.09
  -4  11   2   24.44    3.55
   4  11  -2   34.05    4.12
   4  11  -1  184.12    7.36
   4  11  -1  180.28    7.40
  -4  11   1  193.36    6.95
   4  11   0  110.39    5.70
   4  11   0  100.55    5.84
  -4 -11  -1 1320.96   28.51
   4  11   1 1357.87   27.79
   4  11   1 1334.41   28.21
  -4 -11  -2   81.31    5.57
   4  11   2   98.53    5.65
   4  11   2   88.29    5.78
  -4 -11  -3    1.68    3.88
  -4 -11  -4   69.35    5.75
   4  11   4   53.99    5.48
   4  11   5    6.87    4.73
  -4 -11  -5    0.38    4.86
   4 -12  -8   80.34    7.85
   4  12  -8   91.31    7.12
   4  12  -7    3.95    5.07
   4 -12  -7   -1.58    5.56
   4 -12  -6   90.30    6.87
   4  12  -6   99.46    6.82
   4 -12  -5  300.19    9.71
   4  12  -5  308.86   10.53
   4 -12  -5  270.75   10.18
   4  12  -5  306.69   10.46
   4 -12  -4    1.41    3.61
   4  12  -4    2.02    3.97
   4 -12  -3   24.71    4.02
   4  12  -3   30.13    4.76
   4  12  -3   17.76    4.32
   4  12  -2   98.28    6.04
   4  12  -2  120.49    6.56
  -4  12   2   95.22    5.29
   4  12  -1   24.48    4.62
  -4  12   1   32.77    4.25
   4  12  -1   28.75    4.40
   4  12   0    2.24    3.88
   4  12   0    0.30    3.67
  -4 -12  -1  125.60    6.96
   4  12   1  134.40    6.62
   4  12   1  132.97    6.98
  -4 -12  -2   84.89    6.03
   4  12   2   81.19    5.58
   4  12   2   87.16    6.13
  -4 -12  -3   89.81    6.46
  -4 -12  -4    8.90    4.75
   4  12   4    9.51    4.88
  -4 -12  -4   14.47    5.02
   4 -13  -7   59.29    6.89
   4  13  -7   75.80    6.96
   4  13  -6   41.63    5.97
   4 -13  -6   35.51    6.11
   4 -13  -5   62.25    5.47
   4  13  -5   61.53    6.11
   4  13  -5   75.18    6.50
   4 -13  -4  308.90   10.06
   4  13  -4  301.69   10.82
   4 -13  -3   88.17    5.82
   4  13  -3  100.36    6.54
   4  13  -3  102.69    6.64
   4 -13  -2   60.73    5.11
   4  13  -2   55.57    5.44
   4  13  -2   63.01    5.87
   4  13  -1    8.06    4.56
  -4  13   1    5.58    4.09
   4  13  -1    4.55    4.47
  -4  13   0   12.38    4.64
   4  13   0    7.83    4.63
   4  13   0    2.80    4.16
   4  13   1   23.16    4.97
  -4 -13  -1   17.55    5.00
   4  13   1   21.09    4.75
  -4 -13  -2   17.04    5.09
   4  13   2    8.63    4.47
  -4 -13  -3   39.07    5.71
   4 -14  -5    7.42    4.75
   4  14  -5    1.54    5.20
   4  14  -4  210.98    9.38
   4 -14  -4  200.38    8.49
   4  14  -3  142.30    7.77
   4 -14  -3  107.56    6.49
   4  14  -3  123.04    7.58
   4  14  -2  324.38   11.14
   4 -14  -2  328.40   10.59
   4  14  -2  329.38   11.41
   4  14  -1  107.36    6.82
   4  14  -1  117.72    7.40
  -4 -14   0  257.86   10.43
   4  14   0  251.14    9.58
   4  14   0  258.65   10.03
  -4  14   0  253.12    9.38
   4  14   1    3.62    5.12
  -4 -14  -1    6.73    5.15
  -4  14  -1   -1.99    5.25
   4  14   1   11.31    4.88
   4  14   2   56.85    6.39
  -4  14  -2   63.66    6.61
   4 -15  -3   -2.53    4.77
   4 -15  -2   35.35    5.30
   4 -15  -1   39.61    5.58
   5   0 -12    5.78    5.49
   5   0 -11    1.33    4.45
   5   0 -11    8.89    4.83
   5   0 -10   95.04    5.88
   5   0 -10   92.78    6.16
   5   0  -9    6.04    3.31
   5   0  -9   -2.79    3.21
   5   0  -8 1423.34   25.68
   5   0  -8 1484.21   29.02
   5   0  -8 1437.90   29.27
   5   0  -7    0.46    0.87
   5   0  -7    0.38    1.08
   5   0  -7   -0.64    2.28
   5   0  -7    1.59    2.23
   5   0  -6 3025.36   56.14
   5   0  -6 3099.66   53.59
   5   0  -6 3116.71   55.91
   5   0  -6 3010.03   53.09
   5   0  -6 3115.17   55.98
   5   0  -5    0.73    0.67
   5   0  -5   -0.17    1.47
   5   0  -5    1.79    1.08
   5   0  -5   -1.40    1.30
   5   0  -4 2268.76   40.53
   5   0  -4 2314.35   41.99
   5   0  -4 2265.07   41.89
   5   0  -3   -1.19    1.42
   5   0  -3    1.36    0.76
   5   0  -3    2.93    1.44
   5   0  -2   24.68    1.98
   5   0  -2   26.21    1.29
   5   0  -2   18.91    1.99
   5   0  -2   26.44    1.41
   5   0  -1   -1.78    1.12
   5   0  -1    0.16    1.05
  -5   0   1   -0.30    0.86
   5   0   0 1349.56   24.95
   5   0   0 1322.16   25.07
  -5   0   0 1343.29   24.53
   5   0   1    0.40    1.33
   5   0   1    1.98    1.36
  -5   0  -1    1.30    1.34
   5   0   2  409.85    9.72
  -5   0  -2  415.52    9.45
   5   0   3    0.58    2.06
  -5   0  -3    1.90    1.91
  -5   0  -4   58.69    3.76
   5   0   4   58.03    3.86
   5   0   5   -3.40    2.90
   5   0   5    0.79    2.82
  -5   0  -5    5.88    2.89
   5   0   6   18.09    3.69
   5   0   6    7.98    3.51
   5   0   7   -2.63    4.03
   5   0   7    4.26    3.93
   5   0   8  889.54   21.44
   5  -1 -12  202.03    9.60
   5   1 -12  207.99   10.00
   5   1 -11    3.00    4.05
   5  -1 -11    0.74    4.71
   5   1 -11   11.20    4.93
   5   1 -10    2.20    3.59
   5  -1 -10    5.76    4.00
   5   1 -10    7.12    4.16
   5  -1  -9   35.51    4.15
   5   1  -9   31.05    3.70
   5   1  -9   25.96    3.88
   5   1  -8   30.38    2.06
   5   1  -8   27.40    3.12
   5  -1  -8   28.00    3.51
   5   1  -8   29.19    3.44
   5   1  -8   24.67    1.96
   5   1  -7    7.07    1.36
   5   1  -7    4.05    1.45
   5   1  -7    6.62    2.32
   5  -1  -7    5.66    2.38
   5   1  -7    6.35    2.33
   5   1  -6  132.26    4.92
   5   1  -6  130.92    3.62
   5  -1  -6  129.76    5.06
   5   1  -6  132.11    4.88
   5   1  -6  130.96    3.29
   5   1  -5  222.66    5.31
   5  -1  -5  232.28    6.66
   5   1  -5  238.32    6.60
   5   1  -5  219.89    6.42
   5   1  -5  234.81    4.97
   5   1  -4  727.67   13.84
   5   1  -4  736.37   12.83
   5   1  -4  736.62   14.98
  -5   1   4  686.68   12.74
   5   1  -4  724.09   14.89
   5   1  -4  733.41   13.42
   5   1  -3 1406.57   25.05
   5   1  -3 1419.78   26.87
   5   1  -3 1387.87   26.71
   5   1  -3 1403.45   25.83
   5   1  -3 1396.92   25.42
   5   1  -2  240.26    6.26
   5   1  -2  232.87    5.20
  -5   1   2  230.89    4.39
   5   1  -2  233.72    6.37
   5  -1  -2  235.19    5.18
   5  -1  -1   22.86    1.61
   5   1  -1   21.79    1.61
   5  -1  -1   24.03    1.56
  -5  -1   1   22.69    1.06
  -5   1   1   24.67    1.19
   5  -1   0 1070.71   20.42
   5  -1   0 1053.10   20.55
   5   1   0 1097.69   20.62
  -5   1   0 1067.80   19.84
  -5  -1   0 1085.81   20.18
   5  -1   1    5.73    1.55
   5  -1   1    7.52    1.70
   5   1   1    6.83    1.60
  -5   1  -1    7.96    1.49
  -5  -1  -1    9.30    1.59
  -5   1  -2   83.19    3.43
   5  -1   2   83.90    3.65
  -5  -1  -2   88.44    3.52
   5  -1   2   90.48    3.86
   5  -1   3  710.01   15.55
   5   1   3  700.88   15.47
  -5   1  -3  724.99   15.23
  -5  -1  -3  721.12   15.32
   5  -1   4    1.41    2.30
   5   1   4   -0.23    2.22
  -5  -1  -4    1.07    2.20
   5   1   5  109.19    5.34
   5  -1   5   99.06    5.19
   5   1   5  103.47    5.35
   5  -1   5   95.84    5.15
  -5  -1  -5   91.94    5.08
   5  -1   6  393.47   11.62
   5   1   6  406.46   11.68
   5   1   6  401.40   11.63
   5  -1   6  425.33   11.86
  -5  -1  -6  402.37   11.53
   5  -1   7   39.68    5.01
   5   1   7   31.28    4.67
   5   1   7   35.82    4.72
   5   1   8  116.46    7.01
   5   1   8  105.17    6.90
   5  -2 -13    5.79    6.09
   5  -2 -12   -0.43    5.82
   5   2 -12    8.63    5.58
   5  -2 -12   -0.88    5.51
   5  -2 -11  503.07   15.08
   5   2 -11  518.01   15.05
   5  -2 -11  513.05   15.08
   5   2 -10   28.46    3.99
   5   2 -10   24.58    4.54
   5  -2 -10   21.94    4.50
   5  -2 -10   25.89    4.75
   5   2  -9  256.47    7.80
   5  -2  -9  242.46    8.98
   5   2  -9  262.12    8.86
   5  -2  -9  234.14    8.59
   5   2  -8    0.96    1.83
   5   2  -8    7.21    2.56
   5  -2  -8    1.75    2.90
   5   2  -8    1.32    2.73
   5  -2  -8   -1.58    2.58
   5   2  -7    5.37    1.63
   5   2  -7    4.00    1.73
   5  -2  -7    6.63    2.54
   5   2  -7    5.86    2.33
   5  -2  -7    6.99    2.36
   5  -2  -6  265.41    7.84
   5   2  -6  261.15    6.33
   5   2  -6  271.92    7.46
   5  -2  -6  247.42    7.29
   5   2  -6  262.32    5.99
   5   2  -5  245.43    5.86
   5  -2  -5  236.24    6.98
   5   2  -5  245.08    6.75
   5  -2  -5  219.26    6.57
   5   2  -5  238.45    6.67
   5  -2  -5  236.30    6.67
   5   2  -5  251.99    5.58
   5   2  -4  236.45    5.74
  -5   2   4  232.55    4.50
  -5   2   4  234.70    4.40
   5   2  -4  239.27    6.40
   5  -2  -4  237.40    6.42
   5   2  -4  240.84    6.42
   5  -2  -4  236.59    6.37
   5   2  -4  232.65    5.42
   5   2  -3 1453.10   27.11
   5  -2  -3 1453.92   27.80
   5   2  -3 1453.65   27.85
   5  -2  -3 1462.79   27.80
   5   2  -3 1496.75   27.84
   5   2  -3 1472.61   26.79
   5   2  -2  340.28    8.26
   5  -2  -2  330.42    8.19
   5   2  -2  350.11    7.34
   5   2  -2  348.00    7.88
   5  -2  -2  349.85    8.42
   5   2  -2  354.47    7.63
  -5  -2   1  478.29    9.32
   5   2  -1  480.21    9.95
   5  -2   0 1077.29   20.58
   5   2   0 1071.89   20.57
  -5  -2   0 1059.48   19.65
   5  -2   1  121.62    4.17
   5   2   1  120.39    4.12
  -5  -2  -1  116.30    3.95
   5  -2   1  113.64    4.04
   5  -2   2 1681.48   31.97
   5  -2   2 1631.02   32.02
  -5  -2  -2 1733.92   31.83
   5  -2   3  627.80   14.13
  -5  -2  -3  622.37   13.83
   5  -2   4   53.01    3.82
   5   2   4   69.22    4.06
  -5  -2  -4   59.86    3.86
   5  -2   5  520.67   13.07
   5   2   5  490.11   12.83
   5   2   5  501.00   12.94
  -5  -2  -5  501.22   12.81
   5   2   6    7.55    3.57
   5   2   6   -1.20    3.43
  -5  -2  -6    3.83    3.45
   5   2   7   60.01    5.35
   5   2   7   57.68    5.25
  -5  -2  -7   62.42    5.53
   5   2   8    5.38    4.63
   5   2   8    7.36    4.73
   5  -3 -12   33.93    6.50
   5   3 -12   34.37    6.23
   5  -3 -12   34.32    6.38
   5  -3 -11   25.70    5.67
   5   3 -11   21.47    5.20
   5  -3 -11   16.07    5.08
   5  -3 -10   15.96    4.94
   5   3 -10    8.24    4.14
   5  -3 -10    6.61    4.22
   5  -3  -9 1736.68   35.53
   5   3  -9 1697.43   34.57
   5  -3  -9 1696.74   34.60
   5  -3  -8   51.70    4.48
   5   3  -8   55.58    4.14
   5  -3  -8   53.49    4.18
   5   3  -8   54.75    3.10
   5  -3  -7   61.84    4.34
   5   3  -7   66.99    3.96
   5  -3  -7   54.81    3.74
   5   3  -7   61.58    2.98
   5  -3  -6  152.21    5.91
   5   3  -6  158.45    4.79
   5   3  -6  158.61    5.47
   5  -3  -6  157.83    5.44
   5   3  -6  154.58    4.54
   5   3  -5  349.36    8.05
   5  -3  -5  352.56    9.16
   5   3  -5  338.71    8.56
   5  -3  -5  348.60    8.58
   5   3  -5  344.70    8.64
   5  -3  -5  327.29    8.52
   5   3  -5  335.97    7.65
   5   3  -4   45.71    2.42
   5   3  -4   43.17    2.62
   5  -3  -4   51.39    2.75
   5   3  -4   48.96    2.79
   5  -3  -4   44.03    2.71
   5   3  -4   46.03    2.29
   5   3  -3  730.59   14.61
   5   3  -3  714.02   14.89
   5  -3  -3  699.10   14.82
   5   3  -3  733.96   15.02
   5  -3  -3  721.47   14.94
   5   3  -3  736.86   14.38
   5   3  -2   12.01    1.58
   5   3  -2   13.68    1.80
   5  -3  -2   12.86    1.73
   5   3  -2   13.45    1.68
   5   3  -1  147.75    4.22
   5   3  -1  138.34    4.34
  -5  -3   0   38.33    1.96
   5   3   0   34.58    2.20
  -5  -3  -1   97.91    3.34
  -5  -3  -1  106.12    3.82
   5   3   1   93.61    3.77
  -5  -3  -2    1.40    1.87
   5   3   3   10.38    2.40
  -5  -3  -3   12.17    2.42
   5   3   4    1.68    2.49
  -5  -3  -4    1.82    2.36
   5   3   5   26.42    3.48
  -5  -3  -5   31.30    3.82
   5   3   6    7.00    3.80
   5   3   6   11.21    3.66
  -5  -3  -6   19.60    3.85
   5   3   7   61.52    5.60
   5   3   7   58.45    5.56
  -5  -3  -7   65.37    5.65
   5   3   8   12.61    5.01
   5   3   8   25.23    5.22
  -5  -3  -8   14.98    5.07
   5  -4 -12   12.33    6.40
   5   4 -12   14.96    5.99
   5  -4 -12   16.20    5.97
   5  -4 -11  328.55   12.55
   5   4 -11  334.75   11.62
   5  -4 -11  342.71   11.67
   5  -4 -10   88.49    6.84
   5   4 -10   95.52    6.23
   5  -4 -10   97.62    6.37
   5  -4  -9  362.83   11.86
   5   4  -9  376.24   10.87
   5  -4  -9  350.01   10.73
   5  -4  -8  110.71    6.14
   5   4  -8  117.02    5.50
   5  -4  -8  113.95    5.49
   5   4  -8  108.52    4.50
   5   4  -7    0.75    2.00
   5  -4  -7    3.26    2.72
   5   4  -7    4.16    2.56
   5  -4  -7    4.17    2.63
   5  -4  -6   27.88    3.06
   5   4  -6   26.67    2.74
   5  -4  -6   28.57    2.72
   5   4  -6   29.56    2.44
   5   4  -5  223.24    6.13
   5  -4  -5  212.56    7.01
   5   4  -5  212.10    6.23
   5  -4  -5  207.81    6.19
   5   4  -5  219.84    5.87
   5   4  -5  228.40    6.41
   5  -4  -5  214.36    6.37
   5   4  -4   14.96    1.88
   5   4  -4   11.94    2.00
   5  -4  -4   12.48    1.98
   5   4  -4   15.21    1.99
   5   4  -4   11.40    1.79
   5  -4  -4   14.22    1.94
  -5   4   4    9.59    0.68
   5   4  -3 1900.49   34.83
   5   4  -3 1875.24   34.70
   5  -4  -3 1860.99   34.73
   5   4  -3 1908.35   34.97
   5  -4  -3 1820.25   34.81
   5   4  -3 1872.48   34.56
   5  -4  -2  625.21   12.39
   5  -4  -2  629.73   10.64
   5   4  -2  640.09   12.47
   5   4  -2  617.29   12.19
   5   4  -1  351.12    8.47
   5   4  -1  341.14    8.28
  -5  -4   0  289.70    6.93
   5   4   0  299.83    7.62
   5   4   0  294.07    7.38
  -5  -4  -1   31.49    2.23
   5   4   1   34.03    2.58
  -5  -4  -2  930.47   19.21
   5   4   3  210.58    6.83
  -5  -4  -3  208.40    6.74
   5   4   4    6.42    2.72
  -5  -4  -4    7.99    2.83
   5   4   5  758.44   17.97
  -5  -4  -5  800.96   18.11
   5   4   6    3.08    3.54
  -5  -4  -6    2.19    3.68
   5   4   7   55.17    5.43
   5   4   7   52.70    5.56
  -5  -4  -7   44.65    5.41
   5   4   8   10.24    4.95
   5   4   8   14.75    5.11
  -5  -4  -8   13.75    5.16
   5  -5 -12   97.09    8.76
   5   5 -12   99.73    7.61
   5  -5 -12   94.27    7.82
   5  -5 -11    9.26    5.71
   5   5 -11   13.90    4.89
   5  -5 -11   10.58    5.08
   5   5 -10    7.88    3.38
   5  -5 -10    5.83    5.01
   5   5 -10    7.09    4.09
   5  -5 -10    8.80    4.24
   5   5  -9    1.62    3.01
   5  -5  -9   -0.40    4.27
   5   5  -9   -0.57    3.50
   5  -5  -9    4.02    3.61
   5   5  -8    3.81    2.73
   5  -5  -8    2.15    3.62
   5   5  -8    3.97    3.02
   5  -5  -8    2.74    3.03
   5  -5  -7  152.85    6.77
   5   5  -7  157.98    5.89
   5  -5  -7  148.00    5.74
   5   5  -7  152.15    5.42
   5  -5  -6   81.90    2.65
   5   5  -6   82.75    3.98
   5  -5  -6   76.86    3.96
   5   5  -6   84.25    3.85
   5   5  -5  125.98    4.61
   5  -5  -5  120.90    4.64
   5   5  -5  114.27    4.50
   5  -5  -5  120.97    2.94
   5   5  -5  127.99    4.63
   5  -5  -5  114.66    4.48
   5   5  -5  122.53    4.45
   5   5  -4  459.14   10.57
   5  -5  -4  447.53    8.21
   5   5  -4  480.96   10.40
   5   5  -4  465.08   10.44
   5  -5  -4  435.25   10.25
   5  -5  -4  455.55   10.33
   5   5  -4  443.72   10.23
  -5   5   4  447.60    8.51
   5  -5  -3  284.87    5.95
   5   5  -3  277.84    7.14
   5   5  -3  285.65    6.90
   5  -5  -3  261.99    6.82
   5  -5  -3  254.97    4.93
   5   5  -3  273.64    7.07
   5  -5  -3  268.44    6.97
   5   5  -3  269.67    6.98
   5   5  -2   -1.58    1.67
   5  -5  -2    1.97    1.10
   5   5  -2   -1.12    1.50
   5  -5  -2   -0.14    1.57
   5  -5  -1  674.97   14.18
   5   5  -1  671.27   14.47
   5   5  -1  676.63   14.21
   5   5  -1  683.05   14.41
  -5  -5   0  173.94    5.16
   5   5   0  172.85    5.56
  -5  -5  -1   19.94    2.23
   5   5   1   21.84    2.40
  -5  -5  -2    0.68    1.87
  -5  -5  -2   -0.21    2.15
   5   5   3 1590.12   32.19
  -5  -5  -3 1679.26   32.29
   5   5   4   53.86    4.22
  -5  -5  -4   55.10    4.17
   5   5   5   15.61    3.66
  -5  -5  -5   23.89    3.99
   5   5   6  205.54    8.17
  -5  -5  -6  200.42    8.18
   5   5   7    2.75    4.47
  -5  -5  -7    0.36    4.43
   5   5   8   29.50    5.51
   5   5   8   24.90    5.33
  -5  -5  -8   26.36    5.61
   5   6 -12    5.46    5.51
   5  -6 -12   -6.02    5.81
   5  -6 -11   47.00    7.03
   5   6 -11   58.30    5.95
   5  -6 -11   61.02    6.15
   5  -6 -10   68.78    7.07
   5   6 -10   70.10    5.71
   5  -6 -10   62.06    5.65
   5   6 -10   61.01    4.84
   5   6  -9   16.39    3.77
   5  -6  -9   22.82    4.98
   5   6  -9   14.26    3.90
   5  -6  -9    9.36    3.85
   5  -6  -8  947.53   22.32
   5  -6  -8  941.96   18.52
   5   6  -8  957.10   20.38
   5  -6  -8  928.77   20.32
   5   6  -8  926.30   19.97
   5  -6  -7   69.64    2.95
   5   6  -7   70.10    4.24
   5  -6  -7   67.85    4.26
   5   6  -7   66.74    4.09
   5  -6  -6 1196.95   21.79
   5   6  -6 1169.05   23.54
   5  -6  -6 1182.63   23.54
   5   6  -6 1157.27   23.62
   5  -6  -5    6.51    2.18
   5   6  -5    5.43    2.26
   5   6  -5    8.13    2.31
   5  -6  -5    7.21    2.66
   5   6  -5    7.31    2.22
   5  -6  -5    3.03    1.16
   5  -6  -4  890.81   17.19
   5   6  -4  872.84   18.42
   5  -6  -4  893.14   16.02
   5   6  -4  879.21   17.88
   5  -6  -4  872.95   17.80
   5   6  -4  895.92   17.77
   5  -6  -4  877.30   17.73
   5   6  -4  833.15   18.07
  -5   6   4  878.90   16.27
   5  -6  -3  336.49    7.57
   5   6  -3  352.74    8.18
   5  -6  -3  334.53    8.11
   5  -6  -3  340.85    8.31
   5   6  -3  329.85    8.56
   5   6  -2   22.82    2.50
   5   6  -2   22.26    2.37
   5   6  -2   20.42    2.15
   5  -6  -2   20.16    2.12
   5   6  -1  164.24    5.01
   5  -6  -1  159.94    4.95
   5   6  -1  157.46    5.38
   5   6   0  578.87   13.21
  -5  -6  -1   17.57    2.40
   5   6   1   18.27    2.69
  -5  -6  -2   44.86    3.23
   5   6   3   18.72    3.17
  -5  -6  -3   11.89    2.87
   5   6   4   24.66    3.64
  -5  -6  -4   25.14    3.73
   5   6   5  110.78    6.11
  -5  -6  -5  108.21    6.01
   5   6   6   12.58    4.26
  -5  -6  -6   23.58    4.59
   5   6   7   11.22    4.96
  -5  -6  -7   16.95    5.14
   5  -7 -11   -6.71    6.54
   5   7 -11   -2.86    5.28
   5  -7 -11   -2.94    5.07
   5  -7 -10   19.19    5.77
   5   7 -10   15.12    4.47
   5  -7 -10   15.39    4.67
   5   7 -10   14.66    4.22
   5  -7  -9  118.84    7.78
   5   7  -9  142.93    6.52
   5  -7  -9  123.81    6.33
   5   7  -9  134.75    6.33
   5   7  -8   24.27    3.86
   5   7  -8   28.93    3.79
   5  -7  -8   34.23    3.92
   5   7  -7    2.07    2.97
   5   7  -7   10.07    2.95
   5  -7  -7    2.13    3.57
   5  -7  -7    6.68    2.98
   5  -7  -6  367.66   11.05
   5  -7  -6  367.59    7.91
   5   7  -6  364.41    9.27
   5  -7  -6  360.58    9.27
   5   7  -6  364.15    9.83
   5   7  -5   36.14    3.28
   5   7  -5   39.63    3.43
   5  -7  -5   40.79    3.85
   5  -7  -5   41.57    2.07
   5   7  -5   40.88    3.11
   5  -7  -5   36.78    3.05
   5  -7  -4  159.82    5.22
   5  -7  -4  171.98    5.16
   5   7  -4  163.56    5.99
   5  -7  -4  174.78    4.18
   5   7  -4  175.03    5.44
   5  -7  -4  173.45    5.35
   5   7  -4  175.40    5.99
   5   7  -4  169.12    5.24
   5  -7  -3  545.24   11.67
   5   7  -3  562.38   11.76
   5  -7  -3  557.10   11.74
   5   7  -3  529.73   12.66
   5   7  -2  388.17   10.13
   5   7  -2  403.48    9.06
   5  -7  -2  410.41    9.09
   5   7  -2  402.40   10.19
   5   7  -1   19.64    2.58
   5   7  -1   15.64    2.15
   5  -7  -1   18.04    2.24
   5   7   0  200.96    6.58
   5   7   0  195.72    6.57
   5   7   1   51.56    3.62
  -5  -7  -1   53.19    3.45
   5   7   1   57.23    3.84
  -5  -7  -2   28.41    3.18
   5   7   3   78.89    4.94
  -5  -7  -3   82.69    4.98
   5   7   4    8.72    3.59
  -5  -7  -4   20.10    3.97
   5   7   5   23.48    4.24
  -5  -7  -5   28.21    4.51
   5   7   6  178.39    8.06
  -5  -7  -6  152.54    7.82
   5   7   7   77.78    6.48
  -5  -7  -7   70.67    6.44
   5  -8 -11   74.09    8.27
   5   8 -10   11.11    4.49
   5  -8 -10    2.23    4.29
   5  -8  -9   98.35    5.74
   5   8  -9  106.63    6.19
   5   8  -8   53.27    4.69
   5  -8  -8   54.18    5.99
   5  -8  -8   53.85    4.49
   5   8  -7   -2.06    3.36
   5  -8  -7    0.76    2.87
   5  -8  -7    3.00    4.08
   5  -8  -6  420.14   12.46
   5   8  -6  434.23   10.43
   5  -8  -6  442.83   10.43
   5   8  -6  412.37   11.38
   5   8  -5    5.00    2.92
   5   8  -5    2.67    2.43
   5  -8  -5    1.95    2.50
   5   8  -5    3.06    2.83
   5  -8  -5    3.58    3.18
   5  -8  -4  122.62    4.64
   5  -8  -4  118.39    4.39
   5   8  -4  126.29    5.33
   5  -8  -3  114.10    4.28
   5   8  -3  100.59    4.99
   5   8  -3  120.41    3.98
   5  -8  -3  108.53    3.88
   5   8  -3  120.88    5.19
  -5   8   3  111.84    4.06
   5   8  -2  119.89    5.20
   5   8  -2  134.17    4.17
   5  -8  -2  125.48    4.15
   5   8  -1  181.37    6.57
   5   8  -1  202.56    5.58
   5  -8  -1  200.07    5.50
   5  -8   0  889.39   17.72
   5   8   0  877.70   19.26
   5   8   0  905.95   17.83
   5   8   0  888.66   19.40
  -5  -8  -1  187.17    6.69
   5   8   1  196.24    6.86
   5   8   1  198.42    7.03
  -5  -8  -2 1158.04   24.14
  -5  -8  -3  114.05    5.63
   5   8   3  124.29    6.05
  -5  -8  -3  112.25    5.88
   5   8   4   22.95    4.21
  -5  -8  -4   13.21    3.96
   5   8   5   72.97    5.76
  -5  -8  -5   77.61    5.89
   5   8   6    1.47    4.63
  -5  -8  -6    0.36    4.58
   5   9 -10   72.35    6.13
   5  -9 -10   65.85    7.82
   5  -9  -9  462.24   14.87
   5   9  -9  437.22   12.70
   5  -9  -8  183.37    9.00
   5   9  -8  171.30    7.48
   5   9  -7   43.36    4.47
   5  -9  -7   45.24    5.57
   5   9  -6   43.12    4.46
   5  -9  -6   42.40    4.88
   5  -9  -5   10.81    2.83
   5   9  -5    7.16    3.16
   5  -9  -5   11.23    3.84
   5   9  -5    6.77    3.07
   5  -9  -4  160.33    5.64
   5   9  -4  134.83    6.01
   5  -9  -3  457.79   10.86
   5   9  -3  453.10   11.97
   5   9  -3  444.28   11.87
  -5   9   3  467.10   10.44
   5   9  -2    9.59    3.00
   5   9  -1   61.16    4.21
   5   9  -1   50.48    4.04
   5   9   0   70.21    4.55
   5   9   0   74.05    4.67
   5   9   1   33.70    3.99
  -5  -9  -1   40.19    3.89
   5   9   1   30.45    3.80
  -5  -9  -2   16.99    3.50
  -5  -9  -3   11.70    3.72
   5   9   3    9.68    3.76
  -5  -9  -3   11.71    3.84
   5   9   4   15.60    4.26
  -5  -9  -4   10.59    4.13
   5   9   5    2.47    4.39
  -5  -9  -5   10.50    4.58
   5   9   6  104.07    7.12
  -5  -9  -6  104.89    7.13
   5  10 -10   63.49    6.36
   5 -10  -9  180.36    9.91
   5  10  -9  175.91    8.27
   5 -10  -8  115.06    8.09
   5  10  -8  120.20    6.83
   5  10  -7   41.32    4.77
   5 -10  -7   30.80    5.42
   5  10  -6   53.30    5.05
   5  10  -6   56.43    5.08
   5 -10  -6   52.32    5.47
   5 -10  -5  240.28    7.73
   5  10  -5  245.78    8.74
   5 -10  -4    1.29    2.77
   5  10  -4    2.87    3.28
   5 -10  -3  859.83   18.30
   5  10  -3  856.91   19.57
   5  10  -3  856.57   19.51
   5  10  -2  291.54    9.29
   5  10  -1  193.39    7.33
   5  10  -1  203.43    7.55
   5  10   0   -0.88    3.39
   5  10   0    4.43    3.18
   5  10   1    4.21    3.64
  -5 -10  -1   11.28    3.63
   5  10   1    8.95    3.49
   5  10   2   27.51    4.11
  -5 -10  -2   32.37    4.21
  -5 -10  -3  109.06    6.20
   5  10   3  116.03    6.50
  -5 -10  -3  110.25    6.65
   5  10   4    3.51    4.33
  -5 -10  -4    5.03    4.67
   5  10   5  392.13   12.50
  -5 -10  -5  394.68   12.81
   5  11  -9   15.07    5.38
   5 -11  -9    8.86    6.39
   5  11  -8    7.50    5.01
   5 -11  -8    6.94    5.80
   5  11  -7   62.42    5.90
   5 -11  -7   55.81    6.36
   5  11  -7   73.71    6.21
   5  11  -6   10.10    4.39
   5  11  -6    7.25    4.32
   5 -11  -6    7.66    4.88
   5 -11  -5  172.60    6.84
   5  11  -5  178.78    7.80
   5 -11  -4   18.08    3.51
   5  11  -4   17.96    4.23
   5  11  -4   16.03    3.98
   5 -11  -3   97.68    5.03
   5  11  -3  103.35    5.99
   5  11  -2   30.79    4.40
   5  11  -1  145.63    6.79
   5  11  -1  137.90    6.77
   5  11   0    7.28    3.75
  -5 -11   0   12.91    3.78
   5  11   0   11.31    3.75
   5  11   1    6.80    4.08
  -5 -11  -1    5.42    3.75
   5  11   1    2.38    3.73
  -5 -11  -2   79.05    5.73
   5  11   2   74.83    5.48
  -5 -11  -3  616.62   16.22
   5  11   3  623.07   16.51
  -5 -11  -3  625.19   16.65
   5  11   4  112.74    7.21
  -5 -11  -4  103.68    7.21
   5  12  -8  227.06    9.86
   5 -12  -8  230.25   10.66
   5  12  -8  208.55    9.46
   5  12  -7   85.71    6.83
   5 -12  -7   83.60    7.33
   5  12  -7   78.15    6.72
   5  12  -6  262.51   10.03
   5  12  -6  251.58    9.82
   5 -12  -5    5.10    3.72
   5  12  -5   -3.78    4.39
   5 -12  -4  346.46   10.22
   5  12  -4  354.99   11.48
   5  12  -4  353.88   11.35
   5 -12  -3  290.50    9.05
   5  12  -3  295.47   10.23
   5 -12  -2   12.98    3.56
   5  12  -2   14.18    4.38
   5  12  -2   10.99    4.54
   5  12  -1  113.42    6.46
   5  12  -1  113.94    6.72
  -5  12   1  129.13    6.28
   5  12   0  118.45    6.60
  -5 -12   0  121.21    6.80
   5  12   0  125.41    7.03
   5  12   1   14.12    4.72
  -5 -12  -1   11.08    4.56
   5  12   1   12.56    4.46
  -5 -12  -2    4.30    4.61
   5  12   2    9.87    4.40
  -5 -12  -3   59.38    5.91
   5  12   3   38.53    5.58
   5  13  -6   23.53    5.57
   5 -13  -5   53.96    5.26
   5  13  -5   50.84    6.06
   5  13  -5   64.09    6.32
   5 -13  -4    1.65    3.92
   5  13  -4   19.28    5.32
   5 -13  -3   79.10    5.35
   5  13  -3   72.48    6.29
   5 -13  -2   58.64    4.96
   5  13  -2   71.37    6.00
   5  13  -2   80.20    6.38
   5  13  -1   93.25    6.42
   5  13  -1   81.12    6.46
  -5  13   0   79.60    6.00
  -5 -13   0   87.45    6.60
   5  13   0   71.89    6.05
   5  13   0   91.44    6.66
   5  13   1   12.32    5.35
  -5 -13  -1   17.15    5.09
   5  13   1    2.92    4.58
  -5 -13  -2    5.32    4.88
   5  13   2   16.77    4.93
   5  14  -4   39.85    5.92
   5  14  -3    6.88    5.42
   5  14  -3    0.37    5.00
   5  14  -2   41.36    5.98
   5  14  -2   28.14    5.50
   5  14  -1   78.82    6.54
   5  14  -1   84.25    6.91
  -5 -14   0  171.57    8.62
   5  14   0  177.82    8.50
   5  14   0  185.39    8.97
   5  14   1  216.38    9.07
  -5  14  -1  222.73    9.30
   6   0 -12   22.11    5.83
   6   0 -11    6.44    4.79
   6   0 -11   -0.33    4.22
   6   0 -10    1.85    3.88
   6   0 -10    4.64    4.10
   6   0  -9   -0.84    3.16
   6   0  -9   -2.19    3.30
   6   0  -8  361.56   10.21
   6   0  -8  371.18   10.49
   6   0  -7    1.67    1.23
   6   0  -7    3.86    2.47
   6   0  -6  847.13   15.75
   6   0  -6  804.37   17.86
   6   0  -6  858.46   18.12
   6   0  -5    0.39    1.66
   6   0  -5    0.40    1.56
   6   0  -4 2917.01   53.50
   6   0  -4 2929.21   53.62
   6   0  -3    0.74    1.58
   6   0  -3    0.38    1.00
   6   0  -3    3.09    1.59
   6   0  -2 1303.74   24.22
   6   0  -2 1339.16   24.47
   6   0  -2 1282.51   26.00
  -6   0   2 1348.36   23.81
   6   0  -1   -0.30    1.25
   6   0  -1    1.38    1.36
  -6   0   1    0.65    1.07
   6   0   0  218.28    5.74
   6   0   0  214.47    5.89
  -6   0   0  206.60    5.24
   6   0   1   -0.63    1.61
   6   0   1   -1.20    1.73
  -6   0  -1    0.88    1.57
   6   0   2  853.49   18.15
   6   0   2  852.88   18.36
  -6   0  -2  900.83   17.81
   6   0   3    1.33    2.33
  -6   0  -3    2.89    2.30
   6   0   4  335.13    9.75
  -6   0  -4  334.24    9.42
   6   0   5    0.30    3.16
   6   0   6  119.58    6.63
   6   0   6  113.45    6.47
   6   0   7    0.71    4.50
   6   0   7    0.71    4.46
   6  -1 -12   63.07    6.73
   6   1 -12   64.38    6.83
   6   1 -11    6.53    4.14
   6  -1 -11    9.29    4.77
   6   1 -11    1.20    4.61
   6   1 -10  551.70   13.89
   6  -1 -10  519.54   14.52
   6   1 -10  527.21   14.70
   6   1  -9   71.37    4.65
   6  -1  -9   75.21    5.30
   6   1  -9   63.99    4.93
   6   1  -8  133.23    3.78
   6  -1  -8  128.24    5.88
   6   1  -8  131.17    5.94
   6   1  -7   30.54    1.98
   6  -1  -7   30.28    3.35
   6   1  -7   31.82    3.17
   6   1  -7   30.92    1.62
   6   1  -6   24.70    1.86
   6   1  -6   26.90    2.59
   6   1  -6   31.13    2.87
   6   1  -6   30.15    1.57
   6   1  -5  121.77    3.72
   6   1  -5  120.17    4.61
   6   1  -5  118.92    4.67
   6   1  -5  120.68    3.18
   6   1  -4  491.28   10.42
   6   1  -4  505.29    9.40
   6   1  -4  511.10   11.55
   6   1  -4  483.50   11.54
   6   1  -3   45.00    1.65
   6   1  -3   42.62    2.73
   6   1  -3   47.58    1.89
   6   1  -3   46.89    2.95
  -6  -1   2 1704.28   30.11
   6   1  -2 1711.87   32.81
   6  -1  -2 1706.29   31.23
   6   1  -2 1756.74   31.26
  -6   1   2 1721.38   30.18
   6  -1  -1  645.07   13.35
   6  -1  -1  665.22   13.25
   6   1  -1  657.92   13.37
  -6   1   1  659.22   12.47
  -6  -1   1  674.58   12.94
   6  -1   0   14.42    1.86
   6  -1   0   15.56    1.95
   6   1   0   15.66    1.90
  -6   1   0   14.84    1.62
  -6  -1   0   18.40    1.80
   6  -1   1  306.02    7.98
   6   1   1  296.48    7.90
  -6   1  -1  308.72    7.31
  -6  -1  -1  315.66    7.56
   6  -1   1  320.01    7.96
   6  -1   2  218.61    6.64
   6   1   2  217.73    6.61
   6  -1   2  210.22    6.66
   6   1   2  227.07    6.81
  -6   1  -2  216.12    6.18
  -6  -1  -2  218.79    6.37
   6  -1   3  259.24    7.94
   6   1   3  260.00    7.93
  -6   1  -3  277.58    7.67
  -6  -1  -3  268.41    7.80
   6  -1   4   73.90    4.70
   6   1   4   71.28    4.67
   6   1   4   68.11    4.62
  -6  -1  -4   85.36    4.68
   6  -1   5  168.56    7.26
   6   1   5  188.42    7.46
  -6  -1  -5  170.29    6.97
   6  -1   6   91.79    6.08
   6   1   6   98.72    6.23
  -6  -1  -6  105.95    6.18
   6   1   6   92.96    6.04
   6   1   7   42.98    5.47
   6   1   7   37.91    5.41
   6  -2 -13    4.45    6.02
   6  -2 -12  239.71   10.79
   6   2 -12  248.95   10.61
   6  -2 -12  243.78   10.70
   6  -2 -11    4.89    4.98
   6   2 -11    9.06    4.84
   6  -2 -11    7.54    4.87
   6  -2 -10   44.66    5.24
   6   2 -10   33.04    4.72
   6  -2 -10   35.63    4.99
   6   2  -9  306.69    7.24
   6  -2  -9  303.62   10.19
   6   2  -9  311.36    9.91
   6  -2  -9  283.66    9.65
   6   2  -8   66.63    3.00
   6  -2  -8   53.87    4.40
   6   2  -8   59.78    4.32
   6  -2  -8   63.60    4.38
   6   2  -8   62.83    2.65
   6   2  -7  303.20    7.28
   6  -2  -7  318.56    9.35
   6   2  -7  307.74    8.91
   6  -2  -7  319.89    9.01
   6   2  -7  309.39    6.82
   6   2  -6    4.82    1.63
   6   2  -6    9.33    2.28
   6  -2  -6    3.80    2.13
   6   2  -6    5.40    2.15
   6  -2  -6    6.83    2.16
   6   2  -6    9.40    1.53
   6   2  -5    0.60    1.35
   6   2  -5    0.58    1.39
   6   2  -5    0.20    1.81
   6  -2  -5    2.32    1.88
   6   2  -5    0.52    0.81
   6   2  -5    1.57    1.70
   6  -2  -5    4.61    1.90
   6   2  -4  251.11    6.29
   6   2  -4  249.13    5.29
   6   2  -4  244.74    6.90
   6  -2  -4  241.35    6.93
   6   2  -4  255.65    7.11
   6  -2  -4  238.43    7.02
   6   2  -4  243.45    5.85
   6   2  -3  199.80    5.47
   6   2  -3  197.33    6.01
   6  -2  -3  194.78    6.05
   6   2  -3  200.78    4.81
   6   2  -3  205.89    6.24
   6  -2  -3  204.17    6.19
   6   2  -3  204.77    5.20
   6   2  -2  300.19    8.00
   6  -2  -2  287.22    7.90
   6   2  -2  306.19    6.87
  -6  -2   1 1062.01   19.38
   6   2  -1 1059.28   20.42
   6  -2   0    6.13    1.66
   6   2   0    5.80    1.74
  -6  -2   0    6.34    1.67
   6  -2   1  829.48   17.44
   6  -2   1  854.03   17.64
   6   2   1  855.30   17.60
  -6  -2  -1  852.38   17.21
   6  -2   2  305.10    8.28
   6  -2   2  295.99    8.30
   6   2   2  297.86    8.26
  -6  -2  -2  300.21    7.99
   6  -2   3   11.32    2.70
  -6  -2  -3   13.03    2.63
   6  -2   4 1392.05   28.46
   6   2   4 1401.39   28.40
   6   2   4 1348.06   28.36
  -6  -2  -4 1398.88   28.11
   6   2   5    8.18    3.48
  -6  -2  -5   15.35    3.75
   6   2   6   16.66    4.38
   6   2   6   23.04    4.55
  -6  -2  -6   11.57    4.15
   6   2   7  264.24   10.12
   6   2   7  264.06   10.02
  -6  -2  -7  287.67   10.20
   6  -3 -12    5.59    5.79
   6   3 -12    7.95    5.62
   6  -3 -12    9.40    5.58
   6  -3 -11   13.19    5.51
   6   3 -11   19.61    5.22
   6  -3 -11   13.25    5.25
   6  -3 -10   14.97    4.88
   6   3 -10   11.42    4.30
   6  -3 -10   15.96    4.50
   6   3  -9   55.12    3.38
   6  -3  -9   57.56    5.18
   6   3  -9   37.86    4.38
   6  -3  -9   48.64    4.68
   6   3  -8    5.78    2.08
   6   3  -8    4.26    2.23
   6  -3  -8    3.58    3.31
   6   3  -8    0.27    2.83
   6  -3  -8    3.21    3.01
   6   3  -7 2896.53   52.82
   6  -3  -7 2894.60   55.31
   6   3  -7 2954.25   54.50
   6  -3  -7 2893.68   54.45
   6   3  -7 2940.66   52.31
   6   3  -6   45.53    2.74
   6  -3  -6   41.38    3.57
   6   3  -6   36.38    3.19
   6  -3  -6   42.85    3.23
   6   3  -6   44.29    2.49
   6   3  -6   37.04    3.12
   6  -3  -6   42.72    3.31
   6   3  -5  869.90   17.45
   6   3  -5  873.74   18.32
   6  -3  -5  869.44   18.35
   6   3  -5  873.17   18.32
   6  -3  -5  863.80   18.28
   6   3  -5  880.48   17.00
   6   3  -4   11.79    1.70
   6   3  -4   12.25    2.04
   6  -3  -4   12.32    2.08
   6   3  -4    8.69    2.10
   6  -3  -4   12.95    2.20
   6   3  -4   10.14    1.86
   6   3  -3    0.37    1.51
   6   3  -3   -0.19    1.91
   6  -3  -3    2.04    1.97
   6   3  -3   -0.45    1.54
   6   3  -3    0.36    1.67
   6  -3  -3   -0.73    1.67
   6   3  -3    1.12    1.22
   6   3  -2   32.47    2.65
   6  -3  -2   32.66    2.63
   6   3  -2   35.39    2.45
   6   3  -2   33.42    2.10
   6   3  -2   34.78    2.40
  -6  -3   1  601.67   11.80
   6   3  -1  590.50   12.55
   6   3   0    0.96    1.64
  -6  -3   0    2.18    1.33
   6   3   1  248.64    7.04
  -6  -3  -1  243.78    6.78
   6   3   2   27.63    2.81
  -6  -3  -2   31.58    2.96
  -6  -3  -3    4.56    2.60
   6   3   4    7.07    3.26
  -6  -3  -4    4.53    2.97
   6   3   5   -0.30    3.54
  -6  -3  -5    1.73    3.43
   6   3   6   -1.67    3.95
   6   3   6    5.42    4.18
  -6  -3  -6    7.75    4.23
   6   3   7   14.00    4.92
   6   3   7   13.01    4.98
  -6  -3  -7    9.49    4.68
   6  -4 -12   84.41    8.15
   6  -4 -12   87.40    7.37
   6   4 -12  102.20    7.67
   6  -4 -11   71.34    7.11
   6   4 -11   51.89    5.93
   6  -4 -11   68.64    6.36
   6  -4 -10   42.03    5.71
   6   4 -10   50.91    5.21
   6  -4 -10   38.35    5.00
   6   4  -9  164.29    5.78
   6  -4  -9  183.33    8.31
   6   4  -9  152.09    6.92
   6  -4  -9  175.09    7.32
   6   4  -9  160.23    5.46
   6   4  -8  260.71    7.52
   6  -4  -8  287.00    9.74
   6   4  -8  271.62    8.69
   6  -4  -8  267.16    8.67
   6   4  -8  272.00    7.19
   6   4  -7  356.71    9.03
   6  -4  -7  368.23   10.79
   6   4  -7  357.93    9.84
   6  -4  -7  332.98    9.67
   6   4  -7  363.09    8.59
   6   4  -6   89.85    4.34
   6  -4  -6   76.58    4.17
   6   4  -6   76.92    3.74
   6  -4  -6   76.00    4.65
   6   4  -6   81.87    4.22
   6  -4  -6   80.82    4.17
   6   4  -6   80.07    3.49
   6   4  -5   25.28    2.49
   6  -4  -5   24.82    2.73
   6  -4  -5   27.53    2.85
   6   4  -5   25.99    2.79
   6   4  -5   31.65    2.76
   6   4  -5   29.30    2.40
   6   4  -4    8.44    1.87
   6   4  -4   12.88    2.21
   6   4  -4   11.41    2.34
   6  -4  -4   11.73    2.08
   6  -4  -4   10.31    2.26
   6   4  -4   10.09    2.01
   6   4  -3   84.64    3.64
   6   4  -3   83.27    3.81
   6  -4  -3   78.71    3.79
   6  -4  -3   75.45    3.90
   6   4  -3   89.92    3.55
   6   4  -2  320.75    8.24
   6  -4  -2  313.31    8.21
   6   4  -2  311.57    8.14
   6   4  -2  314.40    7.93
  -6  -4   1 2077.30   37.54
   6   4  -1 2045.44   38.17
  -6  -4   0   57.42    2.75
   6   4   0   51.79    3.12
   6   4   1  611.35   13.89
  -6  -4  -1  628.04   13.73
   6   4   2  204.55    6.83
  -6  -4  -2  216.65    6.88
  -6  -4  -3   19.00    3.14
   6   4   4  478.53   12.80
  -6  -4  -4  492.01   12.64
   6   4   5   24.18    3.95
  -6  -4  -5   20.91    3.87
   6   4   6   15.97    4.61
   6   4   6   17.08    4.57
  -6  -4  -6   22.22    4.69
   6   4   7  335.46   11.38
   6   4   7  327.29   11.46
  -6  -4  -7  315.30   11.17
   6  -5 -12   82.31    8.46
   6   5 -12   75.85    7.07
   6  -5 -12   70.49    7.10
   6  -5 -11   -0.49    5.77
   6   5 -11   -3.58    4.90
   6  -5 -11   -2.90    4.78
   6   5 -10  142.66    6.01
   6  -5 -10  145.50    8.38
   6   5 -10  139.21    7.24
   6  -5 -10  137.01    7.16
   6   5  -9    2.97    2.92
   6   5  -9    1.50    3.02
   6  -5  -9    6.57    4.34
   6   5  -9    5.29    3.75
   6  -5  -9    3.51    3.63
   6   5  -8   27.77    3.18
   6   5  -8   32.51    3.92
   6  -5  -8   36.13    4.69
   6  -5  -8   40.65    4.14
   6   5  -8   32.42    3.41
   6   5  -7   23.90    2.82
   6   5  -7   22.84    2.98
   6   5  -7   25.93    3.39
   6  -5  -7   20.93    3.29
   6  -5  -7   24.41    3.90
   6   5  -6   12.61    2.38
   6   5  -6   15.54    2.73
   6   5  -6   10.08    2.65
   6  -5  -6   10.76    2.80
   6   5  -5  187.78    6.02
   6   5  -5  189.12    6.25
   6  -5  -5  190.72    6.27
   6   5  -5  187.86    6.11
   6  -5  -5  191.52    6.14
   6   5  -5  188.32    5.80
   6   5  -4   74.26    3.70
   6   5  -4   74.93    3.67
   6  -5  -4   73.79    3.72
   6   5  -4   69.76    3.72
   6  -5  -4   65.23    3.71
   6   5  -4   69.48    3.49
   6   5  -3  333.95    8.69
   6   5  -3  350.91    8.59
   6  -5  -3  321.61    8.48
   6   5  -3  347.94    8.55
   6   5  -2  681.45   14.65
   6  -5  -2  662.68   14.62
   6  -5  -2  682.34   12.52
   6   5  -2  671.14   14.60
   6   5  -1  216.69    6.58
   6  -5  -1  214.46    6.58
   6   5  -1  214.51    6.56
   6   5  -1  218.62    6.56
  -6  -5   0   65.96    3.17
   6   5   0   65.57    3.55
   6   5   1  515.62   12.35
  -6  -5  -1  524.13   11.61
   6   5   2   28.05    3.26
  -6  -5  -2   30.78    3.28
  -6  -5  -3  227.46    7.73
   6   5   4   16.68    3.65
  -6  -5  -4   12.08    3.48
   6   5   5  477.36   13.29
  -6  -5  -5  473.93   13.16
   6   5   6    1.39    4.22
  -6  -5  -6    5.18    4.52
   6   5   7   34.35    5.50
   6   5   7   48.66    5.91
  -6  -5  -7   46.89    6.00
   6   6 -12   -0.37    5.67
   6  -6 -12    4.46    5.78
   6  -6 -11   -5.13    6.33
   6   6 -11    2.42    4.95
   6  -6 -11   -1.39    5.00
   6   6 -10   -1.25    3.74
   6  -6 -10   -2.84    5.19
   6   6 -10    1.90    4.39
   6  -6 -10   -0.95    4.44
   6   6  -9   94.50    5.35
   6  -6  -9   86.92    6.76
   6   6  -9   89.90    5.67
   6  -6  -9   99.15    5.84
   6   6  -9   95.66    5.11
   6   6  -8  224.28    7.57
   6  -6  -8  238.08    9.47
   6   6  -8  221.62    7.81
   6  -6  -8  239.44    7.97
   6   6  -8  228.91    7.23
   6   6  -7  108.31    5.12
   6   6  -7  103.44    5.04
   6  -6  -7  102.13    5.14
   6   6  -7  105.56    4.85
   6   6  -6  453.81   11.59
   6   6  -6  457.27   11.52
   6  -6  -6  479.69   11.56
   6   6  -6  482.62   11.38
   6   6  -5   75.15    4.07
   6   6  -5   70.16    4.01
   6  -6  -5   70.43    4.04
   6   6  -5   73.03    3.93
   6   6  -5   77.69    3.92
   6  -6  -5   69.25    3.92
   6   6  -4  875.44   18.79
   6   6  -4  879.18   18.56
   6   6  -4  913.89   18.41
   6  -6  -4  907.09   18.55
   6  -6  -4  897.07   18.40
   6   6  -4  862.23   18.44
   6  -6  -3  139.21    3.75
   6   6  -3  129.28    5.16
   6   6  -3  144.61    4.95
   6  -6  -3  133.77    4.89
   6   6  -3  145.89    5.22
   6  -6  -2  920.85   16.98
   6   6  -2  895.75   18.50
   6  -6  -2  896.62   18.55
   6   6  -2  892.02   18.87
   6   6  -1  192.15    5.97
   6  -6  -1  178.77    5.89
   6   6  -1  181.83    6.23
   6   6  -1  182.21    6.18
  -6  -6   0   40.52    2.92
   6   6   0   36.64    3.24
   6   6   0   36.61    3.05
  -6  -6  -1  104.23    4.38
   6   6   1   92.25    4.69
   6   6   2  254.61    8.19
  -6  -6  -2  262.92    8.26
  -6  -6  -3    3.39    3.23
   6   6   4  266.08    9.25
  -6  -6  -4  264.89    9.21
   6   6   5   20.44    4.46
  -6  -6  -5   20.59    4.52
   6   6   6   98.45    6.77
  -6  -6  -6   98.03    6.75
   6   7 -11   12.36    5.04
   6  -7 -11    1.05    6.52
   6  -7 -11    7.89    5.07
   6   7 -10  305.52    9.89
   6  -7 -10  314.56   12.41
   6   7 -10  312.47   10.21
   6  -7 -10  299.92   10.19
   6   7 -10  321.19    9.76
   6   7  -9   41.70    4.39
   6   7  -9   34.07    4.50
   6   7  -9   43.77    4.69
   6  -7  -9   35.73    4.56
   6  -7  -9   43.82    6.06
   6   7  -8  130.57    6.19
   6   7  -8  147.20    6.25
   6  -7  -8  132.95    6.13
   6   7  -8  139.20    6.01
   6   7  -7   93.13    5.33
   6  -7  -7   91.21    6.16
   6   7  -7  104.60    5.16
   6  -7  -7  112.11    5.18
   6   7  -7  105.31    5.20
   6   7  -6    2.63    2.70
   6   7  -6   -1.02    2.69
   6  -7  -6    3.20    2.86
   6   7  -6    2.75    2.78
   6  -7  -6   -0.66    3.31
   6   7  -5   17.51    3.09
   6   7  -5   15.86    2.95
   6  -7  -5   17.00    2.89
   6   7  -5   17.04    3.00
   6   7  -5   14.06    2.61
   6  -7  -5   13.93    2.71
   6   7  -4  234.67    7.66
   6   7  -4  256.98    7.08
   6  -7  -4  244.48    7.01
   6   7  -4  261.97    7.70
   6  -7  -4  252.12    6.27
   6   7  -3    9.26    2.56
   6  -7  -3    6.01    1.73
   6   7  -3    8.90    2.16
   6  -7  -3   11.16    2.30
   6  -7  -2  679.82   13.83
   6   7  -2  684.32   15.69
   6   7  -2  721.82   14.97
   6  -7  -2  735.72   14.95
   6   7  -2  685.20   15.65
   6   7  -1  391.84    9.60
   6  -7  -1  407.09    9.73
   6   7  -1  399.13   10.58
   6   7  -1  377.87   10.33
  -6  -7   0   13.29    2.60
   6   7   0   15.35    2.91
  -6  -7  -1    5.63    2.54
   6   7   1    3.77    2.65
  -6  -7  -2  256.85    7.69
  -6  -7  -2  225.63    7.99
  -6  -7  -3   19.87    3.86
   6   7   4   24.65    4.30
  -6  -7  -4   15.77    4.23
   6   7   5   39.51    5.25
  -6  -7  -5   39.96    5.18
   6   7   6  116.46    7.15
  -6  -7  -6   98.27    7.00
   6  -8 -11   -6.86    6.81
   6   8 -10   29.85    4.87
   6   8 -10   30.92    5.05
   6  -8 -10   25.85    4.80
   6   8  -9   36.71    4.77
   6   8  -9   51.89    5.21
   6  -8  -9   38.52    4.64
   6   8  -8    0.53    3.56
   6   8  -8    5.30    3.92
   6  -8  -8    1.85    3.49
   6  -8  -8    4.62    4.66
   6   8  -7   60.28    4.98
   6  -8  -7   65.73    5.87
   6  -8  -7   56.61    4.37
   6   8  -7   58.10    4.49
   6   8  -6   29.07    3.79
   6   8  -6   27.21    3.54
   6   8  -6   29.01    4.01
   6  -8  -6   24.73    3.39
   6   8  -5    2.69    2.99
   6   8  -5    0.56    2.91
   6  -8  -5    3.31    2.67
   6   8  -5    1.87    3.17
   6  -8  -4  506.56   11.03
   6   8  -4  492.40   12.66
   6   8  -4  477.28   12.41
   6   8  -4  526.04   11.42
   6  -8  -4  487.28   11.34
   6   8  -3    3.71    2.64
   6  -8  -3    7.94    2.06
   6   8  -3    6.10    2.23
   6  -8  -3    7.84    2.36
   6   8  -2   64.78    4.33
   6   8  -2   66.11    3.43
   6  -8  -2   70.32    3.51
   6   8  -2   65.25    4.26
   6   8  -1  230.51    7.82
   6   8  -1  238.40    6.78
   6  -8  -1  249.45    6.86
  -6  -8   0    5.83    2.57
   6   8   0    7.49    2.60
   6  -8   0    7.99    2.64
   6   8   0    8.95    3.15
  -6  -8  -1  119.56    5.40
   6   8   1  108.32    5.66
   6   8   1  110.70    5.59
  -6  -8  -2  212.55    7.48
  -6  -8  -2  221.59    8.02
  -6  -8  -3   74.94    5.45
   6   8   4  971.17   22.44
  -6  -8  -4  975.88   22.47
   6   8   5   75.59    6.39
  -6  -8  -5   67.42    6.24
   6   8   6   10.14    5.25
  -6  -8  -6    5.64    5.26
   6   9 -11   28.33    5.42
   6   9 -10  228.78    9.18
   6  -9 -10  212.62   11.16
   6   9 -10  222.96    8.87
   6   9  -9   19.99    4.65
   6   9  -9   21.41    4.94
   6  -9  -9    7.01    5.79
   6   9  -8    2.31    4.03
   6   9  -8    0.32    4.07
   6  -9  -8    5.17    5.01
   6   9  -7  999.33   22.17
   6  -9  -7  973.96   23.30
   6   9  -7  950.99   21.51
   6   9  -6  173.54    7.34
   6   9  -6  156.87    6.91
   6   9  -5  238.07    8.41
   6   9  -5  239.45    8.25
   6  -9  -4   67.67    3.72
   6   9  -4   70.80    4.88
   6   9  -3   17.07    3.61
   6  -9  -3   13.13    2.54
   6   9  -3   16.11    3.47
   6   9  -2  242.15    8.25
   6   9  -2  246.29    8.24
   6   9  -1  132.81    6.16
   6   9   0   11.08    3.47
  -6  -9   0    9.91    3.22
   6   9   0    8.24    3.37
  -6  -9  -1   90.19    5.13
   6   9   1   88.47    5.43
  -6  -9  -2   22.28    3.73
  -6  -9  -3    3.04    4.11
   6   9   4   11.80    4.60
  -6  -9  -4    7.58    4.80
   6   9   5   -7.86    5.08
  -6  -9  -5    0.75    5.07
   6  10 -10    0.31    4.97
   6  10 -10    6.28    5.25
   6  10  -9   30.99    5.29
   6  10  -9   38.40    5.77
   6 -10  -9   26.28    6.56
   6  10  -8  221.66    9.23
   6 -10  -8  241.51   10.49
   6  10  -8  244.65    9.07
   6  10  -7  155.97    7.67
   6  10  -7  147.42    7.27
   6  10  -6   56.46    5.05
   6  10  -6   66.38    5.61
   6  10  -5   14.75    4.16
   6  10  -5   10.90    3.91
   6 -10  -4  152.80    5.68
   6  10  -4  160.76    7.12
   6 -10  -3   70.96    3.94
   6  10  -3   77.85    5.43
   6  10  -3   73.10    5.20
   6 -10  -2   64.38    3.86
   6  10  -2   62.29    4.94
   6  10  -1  775.51   18.37
  -6 -10   0  142.59    6.37
   6  10   0  153.41    6.98
   6  10   0  130.46    6.72
  -6 -10  -1  320.04    9.99
   6  10   1  309.53   10.20
  -6 -10  -2    2.39    3.70
   6  10   3   13.45    4.82
  -6 -10  -3   13.31    4.83
   6  10   4   89.78    6.73
  -6 -10  -4   88.23    6.97
   6  11  -9    4.99    5.30
   6  11  -9   17.44    5.67
   6 -11  -9    5.12    6.34
   6  11  -8    2.67    4.87
   6  11  -8    1.86    5.05
   6  11  -7   12.64    4.83
   6  11  -7    9.18    4.80
   6  11  -6   11.22    4.56
   6  11  -6   10.00    4.55
   6  11  -5  238.34    9.11
   6  11  -4   16.93    4.47
   6  11  -4   14.85    4.44
   6  11  -3   45.53    5.13
   6  11  -3   49.05    5.12
   6  11  -2   66.97    5.48
   6  11  -1   61.52    5.51
   6  11  -1   59.95    5.31
  -6 -11   0   99.70    6.15
   6  11   0   88.23    6.00
   6  11   0   85.38    6.16
  -6 -11  -1  352.51   11.14
   6  11   1  358.78   11.12
  -6 -11  -2   42.78    5.22
   6  11   3  137.49    7.91
  -6 -11  -3  171.17    8.30
   6  12  -8   21.83    5.61
   6  12  -7   74.31    6.82
   6  12  -7   75.91    6.73
   6  12  -6  215.97    9.26
   6  12  -6  220.43    9.25
   6  12  -5   71.54    6.26
   6  12  -4  176.50    8.29
   6  12  -4  173.70    8.09
   6  12  -3   64.32    5.90
   6  12  -3   66.88    5.86
   6  12  -2  204.88    8.52
   6  12  -1   63.54    5.72
   6  12  -1   74.82    6.15
   6  12   0    5.37    4.88
  -6 -12   0    4.43    4.30
   6  12   0    0.34    4.34
  -6 -12  -1  160.57    7.75
   6  12   1  139.15    7.46
  -6 -12  -2   88.43    6.58
   6  13  -6   24.03    5.90
   6  13  -5    6.31    5.16
   6  13  -5   16.80    5.45
   6  13  -4  189.86    8.91
   6  13  -4  193.81    9.05
   6  13  -3   23.89    5.30
   6  13  -2   90.70    6.59
   6  13  -2   90.07    6.72
  -6 -13   1  170.74    8.34
   6  13  -1  159.59    8.15
   6  13  -1  161.92    8.36
   6  13   0    7.12    5.08
  -6 -13   0   20.05    5.14
   6  13   0   13.99    5.07
  -6 -13  -1   28.78    5.58
   6  13   1   31.46    5.63
   7   0 -12    0.89    5.47
   7   0 -11    2.42    4.90
   7   0 -10   -0.37    4.09
   7   0  -9    0.98    3.41
   7   0  -8   14.23    3.36
   7   0  -7    1.04    2.50
   7   0  -7   -1.88    2.24
   7   0  -6  981.10   21.23
   7   0  -6 1030.49   21.38
   7   0  -5    2.53    2.08
   7   0  -5   -1.14    2.04
   7   0  -4   16.18    1.28
   7   0  -4   15.05    2.41
   7   0  -4   12.27    2.06
   7   0  -3    2.00    1.80
   7   0  -3    0.17    1.24
  -7   0   3    0.52    0.86
   7   0  -2  661.21   13.06
   7   0  -2  664.67   13.38
   7   0  -2  650.78   15.06
  -7   0   2  659.47   12.47
   7   0  -1    0.87    1.61
   7   0  -1    0.71    1.63
  -7   0   1    0.08    1.23
   7   0   0 1499.33   28.85
   7   0   0 1519.52   29.17
  -7   0   0 1530.73   28.19
   7   0   1   -2.77    2.20
   7   0   1    1.01    2.15
  -7   0  -1   -0.71    1.83
   7   0   2   76.97    4.23
   7   0   2   88.51    4.54
  -7   0  -2   76.29    3.89
   7   0   3    1.01    2.88
   7   0   3   -2.63    3.01
  -7   0  -3    0.21    2.58
   7   0   4   64.94    4.84
  -7   0  -4   65.02    4.58
   7   0   5   -4.49    4.03
   7   0   5    2.33    4.02
   7   0   6   83.68    6.39
   7  -1 -12   -8.21    5.40
   7   1 -12    1.76    5.50
   7  -1 -11  714.73   18.06
   7   1 -11  650.17   17.96
   7  -1 -10   61.74    5.42
   7   1 -10   44.42    5.16
   7   1  -9   42.27    4.51
   7   1  -8  854.87   16.25
   7   1  -8  822.00   19.20
   7   1  -7   41.02    2.36
   7   1  -7   41.01    3.61
   7   1  -7   40.80    3.62
   7   1  -6  880.17   17.23
   7   1  -6  896.75   19.31
   7   1  -6  907.11   19.33
   7   1  -5   29.75    1.13
   7   1  -5   30.76    2.22
   7   1  -5   29.22    2.94
   7   1  -5   28.45    2.71
   7   1  -4   10.14    2.33
   7   1  -4    9.24    1.23
   7   1  -4   11.05    2.20
   7   1  -3  141.36    3.59
   7   1  -3  128.77    5.18
   7   1  -3  136.90    3.83
   7   1  -2  100.69    4.57
   7   1  -2   98.25    3.25
   7  -1  -2   96.29    3.44
   7   1  -2   94.99    3.40
  -7   1   2   93.82    2.45
  -7  -1   2   99.88    3.06
   7   1  -1   23.75    2.06
   7  -1  -1   23.72    2.13
   7  -1  -1   22.54    2.17
   7   1  -1   24.48    2.24
  -7   1   1   23.42    1.64
  -7  -1   1   24.39    1.89
   7  -1   0  910.40   18.68
   7   1   0  927.61   18.69
   7  -1   0  916.91   18.95
   7   1   0  928.46   18.95
  -7   1   0  942.44   17.85
  -7  -1   0  937.43   18.19
   7  -1   1  288.15    7.91
   7   1   1  294.47    7.94
   7  -1   1  273.77    7.98
   7   1   1  278.11    7.97
  -7   1  -1  288.55    7.17
  -7  -1  -1  285.00    7.36
   7  -1   2  133.89    5.46
   7   1   2  134.67    5.46
   7  -1   2  135.43    5.60
   7   1   2  130.97    5.52
  -7   1  -2  141.84    5.00
  -7  -1  -2  140.67    5.16
   7  -1   3  227.74    7.76
   7   1   3  224.06    7.71
   7  -1   3  237.59    8.05
   7   1   3  244.73    8.09
  -7  -1  -3  229.20    7.46
   7  -1   4   29.69    4.08
   7   1   4   28.33    4.01
  -7  -1  -4   29.03    3.79
   7  -1   5  213.91    8.50
   7   1   5  200.94    8.27
   7   1   5  237.23    8.80
  -7  -1  -5  211.01    8.12
   7   1   6   27.34    5.25
   7   1   7   54.34    6.25
   7  -2 -13    8.76    6.27
   7  -2 -12  194.83    9.79
   7   2 -12  206.81    9.93
   7  -2 -12  210.99   10.01
   7  -2 -11   13.00    5.10
   7   2 -11   15.63    5.23
   7  -2 -11    8.39    4.81
   7  -2 -10  206.02    8.82
   7   2 -10  194.53    8.51
   7  -2 -10  201.85    8.69
   7  -2  -9  274.85    9.82
   7   2  -9  317.82    9.98
   7  -2  -9  269.03    9.58
   7   2  -8  113.55    3.94
   7   2  -8  110.39    5.74
   7  -2  -8  125.42    5.90
   7   2  -7    3.35    1.52
   7   2  -7    4.42    1.89
   7   2  -7    2.12    2.35
   7   2  -7    3.14    2.64
   7  -2  -7    2.59    2.73
   7  -2  -7    3.24    2.54
   7   2  -6   86.61    3.56
   7   2  -6   91.70    4.61
   7  -2  -6   88.93    4.59
   7   2  -6   89.60    4.57
   7  -2  -6   91.40    4.57
   7   2  -6   89.59    3.06
   7   2  -5  391.51    8.95
   7   2  -5  389.39    7.48
   7   2  -5  362.42    9.88
   7  -2  -5  373.06   10.01
   7   2  -5  381.84   10.15
   7  -2  -5  379.55   10.12
   7   2  -5  377.27    8.26
   7   2  -4   44.16    2.71
   7   2  -4   45.00    2.01
   7   2  -4   39.29    2.96
   7  -2  -4   45.58    3.21
   7   2  -4   46.76    3.40
   7  -2  -4   47.41    3.39
   7   2  -3   99.61    4.47
   7  -2  -3  105.76    4.60
   7   2  -3  107.93    3.47
  -7  -2   2  341.73    6.87
   7   2  -2  356.75    9.48
   7  -2  -2  331.32    9.27
   7   2  -2  357.29    8.14
   7   2  -1   61.14    3.13
  -7  -2   1   66.07    2.89
   7   2   0  116.17    4.49
  -7  -2   0  113.09    4.07
   7  -2   1  293.98    8.37
   7   2   1  288.48    8.22
  -7  -2  -1  311.61    7.92
   7  -2   2    8.58    2.76
   7   2   2    8.19    2.69
   7   2   2    8.45    2.72
  -7  -2  -2   11.00    2.53
   7   2   3  235.77    8.02
   7   2   3  247.42    8.21
  -7  -2  -3  247.75    7.77
   7   2   4   24.36    4.06
  -7  -2  -4   31.35    3.99
   7   2   5   17.04    4.20
   7   2   5   16.09    4.19
  -7  -2  -5   23.94    4.23
   7   2   6  551.88   15.40
  -7  -2  -6  565.63   15.10
   7  -3 -12    7.84    5.99
   7   3 -12    5.54    5.81
   7  -3 -12   16.29    5.92
   7  -3 -11  119.90    8.00
   7   3 -11  118.56    7.39
   7  -3 -11  128.54    7.67
   7  -3 -10    0.40    4.50
   7   3 -10    3.20    4.21
   7  -3 -10    1.42    4.21
   7   3  -9   22.90    2.76
   7  -3  -9   23.25    4.46
   7   3  -9   20.75    4.11
   7  -3  -9   28.36    4.29
   7   3  -8   63.81    3.49
   7   3  -8   56.72    4.51
   7  -3  -8   61.17    4.57
   7   3  -8   63.95    3.01
   7   3  -7   50.38    3.97
   7  -3  -7   57.49    4.26
   7   3  -7   50.18    3.03
   7   3  -7   50.72    3.98
   7  -3  -7   54.48    4.20
   7   3  -7   49.52    2.77
   7   3  -6    1.01    1.67
   7   3  -6    1.05    1.91
   7   3  -6    0.73    2.47
   7  -3  -6    2.64    2.54
   7   3  -6   -0.24    2.29
   7   3  -6    0.55    0.99
   7  -3  -6    0.73    2.44
   7   3  -5 2214.83   40.92
   7   3  -5 2218.40   39.36
   7   3  -5 2207.82   42.04
   7  -3  -5 2246.46   42.18
   7   3  -5 2218.53   42.12
   7  -3  -5 2201.97   42.06
   7   3  -5 2186.40   40.26
   7   3  -4   70.38    3.46
   7   3  -4   68.00    2.65
   7   3  -4   62.92    3.69
   7  -3  -4   69.37    3.80
   7   3  -4   72.77    4.10
   7  -3  -4   67.93    4.03
   7   3  -4   71.79    3.23
   7   3  -3 1735.37   33.65
   7   3  -3 1830.58   34.51
   7  -3  -3 1784.98   34.46
   7   3  -3 1782.24   32.67
  -7  -3   2    2.58    1.24
   7   3  -2    2.72    2.33
   7  -3  -2    2.94    2.12
   7   3  -2    1.75    1.66
  -7  -3   1  544.43   10.86
   7   3  -1  546.42   12.07
   7   3   0   97.89    4.25
  -7  -3   0   92.04    3.91
   7   3   1   79.02    4.18
  -7  -3  -1   79.29    3.90
   7   3   2   25.91    3.33
  -7  -3  -2   17.23    2.87
   7   3   3  227.02    7.88
  -7  -3  -3  214.35    7.37
   7   3   4    9.44    3.87
  -7  -3  -4    6.27    3.55
   7   3   5   33.47    4.87
   7   3   5   42.77    5.06
  -7  -3  -5   38.82    4.62
   7   3   6    2.20    4.74
  -7  -3  -6    4.69    4.49
   7  -4 -12  114.88    8.74
   7   4 -12  111.54    8.04
   7  -4 -12  126.49    8.27
   7  -4 -11   40.04    6.33
   7   4 -11   28.34    5.68
   7  -4 -11   28.74    5.58
   7  -4 -10   38.72    5.65
   7   4 -10   39.32    5.07
   7  -4 -10   40.77    5.22
   7   4  -9  248.82    7.22
   7  -4  -9  242.65    9.68
   7   4  -9  234.17    8.75
   7  -4  -9  259.91    9.08
   7   4  -8    1.67    2.34
   7   4  -8    0.18    2.48
   7   4  -8   -2.82    3.26
   7  -4  -8    5.31    3.32
   7  -4  -8    4.31    3.73
   7   4  -7   26.32    2.72
   7   4  -7   27.60    2.90
   7   4  -7   35.42    3.75
   7  -4  -7   33.53    3.66
   7   4  -6  426.58   10.35
   7   4  -6  428.97   11.23
   7  -4  -6  435.54   11.26
   7   4  -6  453.69    9.99
   7   4  -6  419.61   11.10
   7  -4  -6  409.58   11.12
   7   4  -5  308.19    8.15
   7   4  -5  315.91    8.79
   7  -4  -5  301.11    8.72
   7   4  -5  315.98    8.91
   7  -4  -5  316.17    8.87
   7   4  -5  304.71    7.72
   7  -4  -4   27.58    2.97
   7   4  -4   27.30    2.61
   7   4  -4   23.94    3.12
   7  -4  -4   28.92    3.11
   7   4  -4   27.40    2.75
   7   4  -4   27.75    2.79
   7   4  -3    6.70    2.14
   7   4  -3    3.65    2.06
   7   4  -3    2.14    2.03
   7  -4  -3    2.40    2.22
   7   4  -3    5.10    1.77
   7   4  -2    7.05    2.28
   7  -4  -2    9.72    2.46
   7   4  -2    9.27    2.27
   7   4  -2    7.74    1.95
  -7  -4   1    5.47    1.66
   7   4  -1    2.92    1.91
  -7  -4   0  146.93    4.45
   7   4   0  138.28    5.24
  -7  -4   0  143.56    5.10
   7   4   1  532.30   12.95
  -7  -4  -1  549.29   12.69
   7   4   2    2.83    2.76
  -7  -4  -2    0.91    2.66
   7   4   3  574.05   14.50
  -7  -4  -3  574.70   14.09
  -7  -4  -4    2.56    3.48
   7   4   5    6.02    4.34
   7   4   5    1.72    4.20
  -7  -4  -5    8.58    4.28
   7   4   6  185.69    8.79
  -7  -4  -6  200.56    8.75
   7  -5 -12   17.01    6.58
   7   5 -12   18.14    5.74
   7  -5 -12   12.32    5.89
   7  -5 -11  610.30   18.31
   7   5 -11  619.64   16.76
   7  -5 -11  627.52   16.77
   7   5 -10   67.57    5.78
   7  -5 -10   68.08    6.66
   7  -5 -10   84.19    6.09
   7   5  -9   38.33    4.57
   7  -5  -9   33.49    4.66
   7  -5  -9   41.58    5.46
   7   5  -9   42.04    3.89
   7   5  -8  373.32    9.73
   7  -5  -8  354.95   11.73
   7   5  -8  346.72   10.51
   7  -5  -8  358.61   10.59
   7   5  -8  372.57    9.21
   7   5  -7   -0.34    2.50
   7   5  -7    8.23    2.86
   7   5  -7    5.66    3.17
   7  -5  -7   10.66    3.37
   7   5  -6  388.44   10.02
   7   5  -6  380.82   10.44
   7  -5  -6  388.50   10.53
   7   5  -6  387.61    9.51
   7   5  -6  401.15   10.50
   7  -5  -6  380.25   10.41
   7   5  -5    3.95    2.29
   7   5  -5    5.48    2.40
   7  -5  -5    1.80    2.42
   7   5  -5    1.84    2.69
   7  -5  -5    6.09    2.80
   7   5  -5    1.62    2.27
   7   5  -4    5.27    2.26
   7   5  -4    3.12    2.35
   7  -5  -4    2.01    2.71
   7  -5  -4    6.82    2.52
   7   5  -4    5.30    2.32
   7   5  -3  444.09   11.14
   7   5  -3  453.77   11.18
   7  -5  -3  447.83   11.17
   7   5  -3  444.98   10.77
   7   5  -2   11.53    2.49
   7   5  -2    8.24    2.45
   7  -5  -2   11.69    2.54
   7   5  -2   10.67    2.29
   7   5  -1   50.89    3.82
   7  -5  -1   47.59    3.60
  -7  -5   1   53.16    2.92
   7   5  -1   55.38    3.43
  -7  -5   0  340.32    8.31
   7   5   0  338.58    9.20
   7   5   1  119.57    5.32
  -7  -5  -1  114.81    5.16
   7   5   2  102.53    5.43
  -7  -5  -2  101.39    5.22
  -7  -5  -3  263.84    8.75
  -7  -5  -4    6.56    3.76
   7   5   5  412.41   12.69
  -7  -5  -5  423.81   12.47
   7   5   6   46.18    5.97
  -7  -5  -6   52.52    5.90
   7   6 -12   -0.37    5.42
   7  -6 -12   -2.26    5.46
   7   6 -11   32.36    5.53
   7  -6 -11   30.94    5.66
   7  -6 -11   40.67    7.03
   7   6 -10    0.25    3.65
   7   6 -10    4.54    4.40
   7  -6 -10    4.52    4.51
   7  -6 -10    5.20    5.33
   7   6  -9   11.30    3.30
   7   6  -9    9.57    3.54
   7   6  -9    8.94    4.04
   7  -6  -9   12.34    4.01
   7  -6  -9   11.33    4.94
   7   6  -8   29.29    3.50
   7   6  -8   18.19    3.43
   7   6  -8   20.50    3.97
   7  -6  -8   29.12    4.24
   7  -6  -8   30.31    4.92
   7   6  -7   78.28    4.61
   7   6  -7   82.56    4.95
   7  -6  -7   79.95    4.97
   7   6  -7   76.45    4.34
   7   6  -6  613.08   14.17
   7  -6  -6  572.85   14.01
   7   6  -6  586.88   13.96
   7   6  -6  598.73   14.11
   7  -6  -6  583.43   14.00
   7   6  -6  565.68   13.36
   7   6  -5  136.54    5.63
   7   6  -5  139.76    5.80
   7  -6  -5  141.43    5.79
   7   6  -5  141.21    5.53
   7  -6  -5  141.91    5.69
   7   6  -5  127.39    5.31
   7   6  -4   36.68    3.26
   7   6  -4   34.57    3.33
   7   6  -4   34.98    3.24
   7  -6  -4   33.88    3.27
   7   6  -3    4.19    2.47
   7   6  -3    0.47    2.37
   7   6  -3    0.80    2.29
   7  -6  -3    0.81    2.44
   7   6  -2  747.24   16.31
   7  -6  -2  762.27   16.41
   7   6  -2  720.90   16.39
  -7  -6   1  124.72    4.67
   7   6  -1  132.70    5.33
   7  -6  -1  124.01    5.37
   7   6  -1  131.81    5.60
   7   6  -1  131.74    5.24
  -7  -6   0  827.08   17.17
   7   6   0  820.44   18.12
  -7  -6  -1    6.75    2.49
   7   6   1    7.71    2.95
  -7  -6  -1    9.01    2.98
   7   6   2    1.70    3.12
  -7  -6  -2    2.71    3.17
  -7  -6  -3   90.59    5.68
  -7  -6  -4  129.13    6.79
   7   6   5    4.32    4.47
  -7  -6  -5    4.14    4.39
  -7  -6  -6   62.19    6.31
   7  -7 -11  105.32    8.71
   7   7 -11  123.10    7.46
   7  -7 -11  102.95    6.98
   7   7 -10   -0.84    4.02
   7   7 -10    4.99    4.60
   7  -7 -10   -0.61    4.46
   7  -7 -10   -2.94    5.50
   7   7  -9    9.26    3.63
   7   7  -9    6.10    3.95
   7   7  -9   10.65    4.35
   7  -7  -9    7.94    4.17
   7  -7  -9    7.24    5.18
   7   7  -8  570.95   14.72
   7   7  -8  604.96   14.88
   7  -7  -8  619.69   14.84
   7   7  -8  599.76   14.24
   7   7  -7   77.96    5.01
   7   7  -7   74.86    4.92
   7  -7  -7   71.50    4.75
   7   7  -7   63.75    4.45
   7   7  -6  517.82   13.23
   7   7  -6  542.45   13.02
   7  -7  -6  520.88   12.90
   7   7  -6  530.72   12.87
   7   7  -5  154.28    6.27
   7   7  -5  140.06    5.99
   7  -7  -5  146.28    6.00
   7   7  -5  145.94    5.94
   7   7  -5  157.59    5.75
   7  -7  -5  146.01    5.69
   7   7  -4   26.07    3.30
   7   7  -4   22.67    3.27
   7   7  -4   24.40    2.97
   7  -7  -4   20.49    2.96
   7   7  -3   32.86    3.17
   7   7  -3   34.59    3.51
   7  -7  -3   36.77    3.27
   7   7  -2  151.99    5.60
   7  -7  -2  161.05    5.83
   7   7  -2  139.18    5.95
   7   7  -1    1.28    2.95
  -7  -7   1   -0.95    2.45
   7   7  -1   -3.09    2.60
   7   7  -1    1.32    2.83
   7  -7  -1    1.47    2.64
   7  -7   0  749.79   16.65
  -7  -7   0  728.96   16.06
   7   7   0  735.28   16.93
  -7  -7  -1  421.99   10.79
   7   7   1  441.33   11.85
  -7  -7  -1  424.67   11.59
   7   7   2   71.74    5.20
  -7  -7  -2   72.82    5.17
  -7  -7  -3    7.57    4.09
  -7  -7  -4   56.15    5.53
   7   7   5   48.29    5.87
  -7  -7  -5   40.56    5.57
   7   8 -10  168.89    7.88
   7  -8 -10  179.65    7.85
   7   8  -9    0.26    3.85
   7   8  -9   -1.23    4.16
   7  -8  -9    7.03    4.32
   7   8  -8   59.88    5.14
   7  -8  -8   70.20    5.13
   7   8  -8   70.90    5.16
   7   8  -7   28.92    4.09
   7  -8  -7   25.43    3.98
   7   8  -7   23.55    4.12
   7   8  -6    7.11    3.37
   7   8  -6    5.64    3.37
   7  -8  -6    0.43    3.13
   7   8  -6    7.92    3.43
   7   8  -5   20.69    3.70
   7   8  -5   23.63    3.25
   7   8  -5   22.58    3.67
   7  -8  -5   22.50    3.34
   7   8  -4   50.56    4.30
   7   8  -4   53.89    3.68
   7  -8  -4   58.10    3.86
   7   8  -4   59.45    4.46
   7   8  -3   22.20    3.56
   7   8  -3   12.54    2.72
   7  -8  -3   12.19    2.81
   7   8  -2  314.47    9.64
   7   8  -2  304.26    8.34
   7  -8  -2  308.94    8.37
   7   8  -2  314.25    9.50
   7   8  -1   -2.23    3.30
  -7  -8   1    3.94    2.77
   7   8  -1    0.57    3.07
   7   8  -1    2.95    2.67
   7  -8  -1   -1.58    2.75
  -7  -8   0   62.34    4.18
   7   8   0   54.48    3.96
   7  -8   0   50.66    3.93
   7   8   0   50.13    4.47
   7   8   0   52.83    4.41
  -7  -8  -1   13.47    3.30
   7   8   1    7.73    3.59
   7   8   2   18.86    4.21
  -7  -8  -2    7.79    3.92
  -7  -8  -3   89.89    6.23
  -7  -8  -4   16.00    4.75
  -7  -8  -5   66.66    6.28
   7   9 -10    8.62    4.88
   7  -9 -10    6.54    6.29
   7   9  -9   43.93    5.27
   7   9  -9   42.67    5.46
   7   9  -8  242.84    9.28
   7   9  -8  235.14    8.61
   7   9  -7    1.70    3.84
   7   9  -7   -4.76    4.00
   7   9  -6   13.57    4.06
   7   9  -6   18.29    4.32
   7   9  -5  669.97   16.85
   7   9  -5  713.06   16.78
   7   9  -4  122.97    6.37
   7   9  -4  144.72    6.55
   7   9  -3  517.66   13.45
   7   9  -2    1.47    3.51
   7   9  -2    3.37    3.45
  -7  -9   1  272.88    8.57
   7   9  -1  257.21    9.07
  -7  -9   0  184.15    7.02
   7   9   0  181.71    7.60
   7   9   0  180.20    7.39
  -7  -9  -1    4.94    3.40
   7   9   1    2.86    3.82
   7   9   2   87.32    5.98
  -7  -9  -2   80.50    5.93
  -7  -9  -3   69.53    6.06
   7   9   4    1.12    4.99
  -7  -9  -4    6.29    4.95
   7  10  -9  150.37    8.17
   7  10  -9  149.54    7.64
   7  10  -8    5.28    4.63
   7  10  -8    5.27    4.81
   7  10  -7   12.72    4.64
   7  10  -7   10.63    4.65
   7  10  -6  306.80   10.41
   7  10  -6  298.28   10.16
   7  10  -5   68.95    5.58
   7  10  -5   69.92    5.55
   7  10  -4    7.79    3.98
   7  10  -3    2.79    3.95
   7  10  -3    8.30    3.89
   7  10  -2   18.20    4.27
   7  10  -2   22.27    4.34
  -7 -10   1    0.56    3.58
   7  10  -1    2.29    3.96
  -7 -10   0  125.31    6.35
   7  10   0  134.68    6.97
  -7 -10  -1  227.99    8.36
   7  10   1  241.44    9.14
  -7 -10  -2   55.38    5.23
   7  10   2   59.52    5.67
  -7 -10  -2   59.03    5.89
  -7 -10  -3  183.53    8.63
   7  11  -9   39.65    5.69
   7  11  -8   56.15    5.95
   7  11  -8   54.68    6.23
   7  11  -7    0.73    4.81
   7  11  -7    4.67    4.77
   7  11  -6   45.51    5.66
   7  11  -6   39.64    5.57
   7  11  -5   16.94    4.78
   7  11  -5   13.62    4.89
   7  11  -4   28.28    4.87
   7  11  -3  373.05   11.68
   7  11  -3  362.13   11.56
   7  11  -2    7.55    4.41
   7  11  -2    9.75    4.39
  -7 -11   1   13.50    4.31
   7  11  -1   27.69    4.97
  -7 -11   0    7.63    4.04
   7  11   0    8.26    4.65
  -7 -11  -1    4.06    4.27
   7  11   1    6.73    4.55
  -7 -11  -2   33.60    5.05
   7  11   2   35.62    5.48
  -7 -11  -2   44.75    5.88
   7  12  -7   65.96    6.79
   7  12  -7   79.56    6.92
   7  12  -6  138.68    7.92
   7  12  -6  141.81    7.99
   7  12  -5  295.75   10.85
   7  12  -4   18.57    5.14
   7  12  -4    9.98    4.93
   7  12  -3   15.72    5.05
   7  12  -3   21.02    5.00
   7  12  -2   18.38    5.12
  -7 -12   1  138.28    7.28
   7  12  -1  131.63    7.48
  -7 -12   0  153.66    7.75
   7  12   0  158.77    7.99
  -7 -12  -1   29.42    5.15
   7  12   1   19.61    5.42
   7  13  -4   79.65    6.83
   7  13  -4   77.99    6.91
   7  13  -3   47.42    6.26
   7  13  -3   52.57    6.17
   7  13  -2  145.74    8.19
  -7 -13   1   -0.71    4.94
   7  13  -1    6.30    5.11
   8   0 -12   74.41    7.41
   8   0 -11    1.66    5.00
   8   0 -10   36.56    5.15
   8   0  -9    3.08    3.68
   8   0  -8   40.58    4.33
   8   0  -8   41.43    4.32
   8   0  -7   -0.59    2.99
   8   0  -7    0.87    2.47
   8   0  -6    1.67    2.63
   8   0  -6    1.09    2.36
   8   0  -5    6.02    2.53
   8   0  -5    1.34    2.59
   8   0  -4 2097.90   40.95
   8   0  -4 2127.54   41.10
   8   0  -3    1.61    2.29
   8   0  -3   -0.33    1.48
   8   0  -2  341.60   10.10
   8   0  -2  358.59    8.08
   8   0  -2  342.86    8.33
   8   0  -1    1.18    1.95
   8   0  -1    2.70    2.14
  -8   0   1   -0.10    1.52
   8   0   0  223.02    6.68
   8   0   0  216.89    6.85
  -8   0   0  222.28    5.91
   8   0   1    0.63    2.57
   8   0   1   -1.61    2.70
  -8   0  -1    2.80    2.28
   8   0   2  961.76   21.04
   8   0   2 1001.83   21.41
  -8   0  -2  978.26   20.16
   8   0   3    5.29    3.52
   8   0   3   -0.89    3.46
  -8   0  -3    1.98    3.07
   8   0   4   15.02    4.32
   8   0   4   13.24    4.32
   8   0   5    0.69    4.45
   8   0   6   10.73    5.14
   8   1 -12   81.70    7.50
   8   1 -11    7.02    4.87
   8   1 -10    1.88    4.24
   8   1  -9  697.29   17.48
   8   1  -8   -1.60    2.98
   8   1  -8    0.31    3.21
   8   1  -7   53.35    4.44
   8   1  -7   66.28    4.67
   8   1  -6  396.00   10.94
   8   1  -6  397.27   11.05
   8   1  -5   69.77    2.11
   8   1  -5   60.96    4.07
   8   1  -5   66.30    4.33
   8   1  -4 1043.07   19.39
   8   1  -4 1024.28   22.20
   8   1  -3    5.17    1.53
   8   1  -3    6.14    2.54
   8   1  -3    3.82    1.65
  -8  -1   3    3.02    1.34
   8   1  -2   17.41    2.96
   8   1  -2   16.44    2.03
   8  -1  -2   11.01    2.07
   8   1  -2   14.34    2.10
  -8  -1   2   14.35    1.72
   8  -1  -1   14.44    2.36
   8   1  -1   11.46    2.18
   8  -1  -1   14.95    2.45
   8   1  -1   14.27    2.31
  -8  -1   1   15.53    1.90
   8  -1   0    5.25    2.33
   8   1   0    5.88    2.34
   8  -1   0    8.43    2.56
   8   1   0    5.61    2.38
  -8   1   0    5.93    1.88
  -8  -1   0    4.38    1.98
   8  -1   1   63.49    3.98
   8   1   1   55.73    3.83
   8  -1   1   50.13    3.85
   8   1   1   62.00    4.05
  -8  -1  -1   55.75    3.48
   8  -1   2  818.61   18.41
   8   1   2  839.93   18.43
   8  -1   2  815.65   18.73
   8   1   2  839.75   18.74
  -8  -1  -2  817.49   17.66
   8  -1   3   69.98    4.97
   8   1   3   65.35    4.84
   8  -1   3   67.91    5.20
   8   1   3   65.10    5.11
  -8  -1  -3   62.65    4.33
   8  -1   4  291.13    9.78
   8   1   4  274.24    9.59
   8   1   4  275.39    9.74
  -8  -1  -4  275.44    9.01
   8   1   5   26.46    4.94
   8   1   6    9.58    5.26
   8   1   6    2.29    5.10
   8   2 -12  110.26    8.11
   8  -2 -12  106.47    8.18
   8   2 -11    7.37    5.11
   8  -2 -11    5.32    4.89
   8   2 -10  539.08   15.03
   8  -2 -10  520.25   14.90
   8   2  -9  127.66    6.79
   8  -2  -9  137.00    6.95
   8   2  -8   41.39    2.86
   8   2  -8   36.46    4.42
   8  -2  -8   49.27    4.61
   8   2  -7  354.55    8.36
   8   2  -7  341.08   10.33
   8  -2  -7  336.81   10.31
   8   2  -7  338.82   10.21
   8  -2  -7  343.33   10.33
   8  -2  -6   15.25    2.98
   8   2  -6   19.52    2.47
   8   2  -6   20.07    3.36
   8  -2  -6   18.22    3.31
   8   2  -6   23.10    3.27
   8   2  -5   -0.26    2.32
   8  -2  -5   -1.84    2.41
   8   2  -5    1.35    2.64
   8  -2  -5    4.00    2.78
   8   2  -5    0.31    1.19
   8   2  -4   40.56    1.84
   8   2  -4   42.79    2.21
   8   2  -4   40.16    3.51
   8  -2  -4   41.27    3.55
   8   2  -3  183.71    4.74
   8   2  -3  173.93    6.57
   8  -2  -3  168.84    6.59
   8   2  -3  191.35    5.18
   8   2  -2  118.40    5.56
   8  -2  -2  112.19    5.40
   8   2  -2  119.67    4.03
   8   2  -2  117.47    4.33
  -8  -2   2  128.58    3.96
   8   2  -1   15.75    2.33
   8   2  -1   14.22    2.43
  -8  -2   1   13.02    2.06
   8   2   0  125.20    4.86
   8   2   0  125.42    5.04
  -8  -2   0  128.47    4.63
   8   2   1  172.48    6.17
   8   2   1  167.35    6.34
  -8  -2  -1  176.39    5.80
   8   2   2   39.49    3.92
   8   2   2   42.33    4.00
  -8  -2  -2   38.48    3.56
   8   2   3    7.03    3.67
   8   2   3    7.28    3.69
  -8  -2  -3   10.64    3.51
   8   2   4   37.39    4.85
   8   2   4   27.42    4.75
  -8  -2  -4   31.35    4.32
   8   2   5  103.37    6.66
  -8  -2  -5   89.45    6.13
   8   3 -12   34.67    6.57
   8  -3 -12   27.79    6.14
   8   3 -11   76.20    6.69
   8  -3 -11   82.71    6.84
   8   3 -10    4.04    4.42
   8  -3 -10    0.37    4.28
   8   3  -9  175.26    7.81
   8  -3  -9  173.43    7.77
   8   3  -8    2.66    2.37
   8   3  -8    1.25    3.36
   8  -3  -8   -3.41    3.45
   8   3  -7   54.42    3.44
   8   3  -7   62.24    4.67
   8  -3  -7   51.56    4.47
   8   3  -7   46.42    2.79
   8   3  -7   50.60    4.23
   8  -3  -7   54.06    4.40
   8   3  -6  194.00    6.19
   8   3  -6  203.32    7.29
   8  -3  -6  200.12    7.30
   8   3  -6  210.18    7.50
   8  -3  -6  193.17    7.31
   8   3  -6  199.23    5.51
   8   3  -5  157.99    5.59
   8   3  -5  172.50    4.37
   8   3  -5  165.69    6.39
   8  -3  -5  173.62    6.56
   8   3  -5  182.42    6.85
   8  -3  -5  179.64    6.74
   8   3  -4   14.23    2.55
   8   3  -4   16.57    1.88
   8   3  -4   14.85    2.83
   8  -3  -4   15.92    2.94
   8   3  -3 1380.13   28.07
   8  -3  -3 1392.96   28.15
   8   3  -3 1359.18   25.98
   8   3  -2    6.03    2.57
   8  -3  -2    5.94    2.70
   8   3  -2    6.89    2.20
   8   3  -1 1380.73   27.04
  -8  -3   1 1380.52   26.48
   8   3   0    6.76    2.59
  -8  -3   0    5.40    2.35
   8   3   1  629.60   14.66
  -8  -3  -1  607.25   13.91
   8   3   2    7.61    3.27
   8   3   2    9.50    3.32
  -8  -3  -2    9.33    3.12
   8   3   3   26.47    4.13
   8   3   3   29.33    4.23
  -8  -3  -3   20.43    3.85
   8   3   4   33.96    4.65
   8   3   4   36.93    4.97
  -8  -3  -4   30.06    4.45
   8   3   5   65.78    5.92
  -8  -3  -5   54.62    5.45
   8   4 -12   14.20    5.98
   8  -4 -12   15.07    5.97
   8   4 -11   13.69    5.57
   8  -4 -11   10.51    5.22
   8   4 -10  277.22   10.11
   8  -4 -10  254.33    9.81
   8   4  -9   18.06    3.10
   8   4  -9   13.36    4.31
   8  -4  -9   22.55    4.66
   8   4  -8    0.91    2.71
   8   4  -8    1.87    3.54
   8  -4  -8    2.77    3.56
   8   4  -7  559.55   12.65
   8   4  -7  560.75   14.15
   8  -4  -7  544.25   14.11
   8   4  -7  546.98   11.85
   8   4  -7  536.42   13.95
   8  -4  -7  537.46   14.04
   8   4  -6    3.24    2.29
   8   4  -6    2.49    3.09
   8  -4  -6   -0.27    3.19
   8   4  -6    6.92    3.09
   8  -4  -6   -1.92    2.79
   8   4  -6    4.30    2.46
   8   4  -5   43.39    3.34
   8  -4  -5   40.92    4.01
   8   4  -5   43.32    2.41
   8   4  -5   35.86    3.61
   8  -4  -5   41.30    3.84
   8   4  -5   47.20    4.03
   8   4  -5   39.34    3.02
   8   4  -4  145.40    5.54
   8   4  -4  142.69    4.51
   8   4  -4  148.08    5.92
   8  -4  -4  154.85    6.06
   8   4  -4  144.49    5.17
   8   4  -3  217.09    6.94
   8   4  -3  205.56    7.24
   8  -4  -3  215.37    7.42
   8   4  -3  210.95    6.04
   8   4  -2   32.81    3.54
   8  -4  -2   24.20    3.40
   8   4  -2   25.37    2.69
   8   4  -1   16.75    2.67
  -8  -4   1   16.55    2.64
   8   4   0   15.47    3.08
  -8  -4   0   14.09    2.72
   8   4   1  224.85    7.76
  -8  -4  -1  237.30    7.41
   8   4   2   72.32    4.95
  -8  -4  -2   66.99    4.59
   8   4   3   25.51    4.34
  -8  -4  -3   26.87    4.06
   8   4   4    4.58    4.22
   8   4   4   -3.09    4.19
  -8  -4  -4    5.10    4.04
   8   4   5  238.56    9.50
  -8  -4  -5  206.05    8.71
   8   5 -12   16.47    6.07
   8  -5 -12   17.52    6.07
   8   5 -11   -0.38    5.10
   8  -5 -11    1.50    5.05
   8   5 -10   18.01    4.97
   8  -5 -10   15.43    4.98
   8   5  -9  765.27   16.84
   8   5  -9  752.04   18.53
   8  -5  -9  769.81   18.60
   8   5  -8   55.45    4.25
   8   5  -8   53.86    4.95
   8  -5  -8   57.68    5.02
   8   5  -8   63.72    3.86
   8   5  -7  272.31    9.03
   8  -5  -7  270.04    9.12
   8   5  -7  260.41    8.11
   8   5  -7  289.94    9.27
   8  -5  -7  277.75    9.12
   8   5  -7  290.93    7.73
   8   5  -6  264.98    8.03
   8   5  -6  282.48    8.95
   8  -5  -6  267.50    8.88
   8   5  -6  263.34    8.58
   8  -5  -6  278.89    8.79
   8   5  -6  264.14    7.47
   8   5  -5   45.12    4.23
   8   5  -5   49.84    3.82
   8   5  -5   50.14    2.84
   8   5  -5   53.41    3.94
   8  -5  -5   52.89    4.01
   8  -5  -5   53.52    4.26
   8   5  -5   58.61    3.67
   8   5  -4  468.52   11.85
   8   5  -4  459.73   10.54
   8   5  -4  479.24   12.05
   8  -5  -4  471.08   12.05
   8   5  -4  486.31   11.42
   8   5  -3   11.44    2.82
   8   5  -3   10.26    2.98
   8  -5  -3   13.49    3.20
   8   5  -3    8.55    2.32
  -8  -5   2   34.79    2.57
   8   5  -2   37.94    3.72
   8  -5  -2   31.99    3.55
   8   5  -2   40.32    3.21
   8   5  -1  747.82   17.27
   8  -5  -1  724.74   17.14
   8   5  -1  725.81   16.25
   8   5   0   17.55    3.12
  -8  -5   0   10.16    2.87
   8   5   1    3.00    3.32
  -8  -5  -1    4.61    3.19
   8   5   2  351.19   10.70
  -8  -5  -2  357.85   10.38
   8   5   3   -1.29    3.69
  -8  -5  -3   -0.28    3.75
  -8  -5  -4  188.63    8.07
   8   5   5  159.06    8.23
  -8  -5  -5  155.10    7.92
   8   6 -11   -0.37    5.12
   8  -6 -11   -3.25    5.21
   8   6 -10    3.43    4.76
   8  -6 -10    5.40    4.75
   8   6  -9    4.44    3.51
   8   6  -9    2.90    4.20
   8  -6  -9   -2.85    4.21
   8   6  -8   12.25    3.26
   8   6  -8   10.18    3.98
   8   6  -8   12.11    3.49
   8  -6  -8   12.15    4.11
   8   6  -7   83.55    4.97
   8   6  -7   90.24    5.57
   8  -6  -7   93.79    5.54
   8   6  -7   97.54    4.84
   8   6  -6    7.67    2.94
   8   6  -6   14.66    3.24
   8  -6  -6   12.17    3.48
   8   6  -6    7.31    3.35
   8  -6  -6   15.35    3.75
   8   6  -6   11.69    3.30
   8   6  -5    0.42    2.73
   8   6  -5    1.98    3.03
   8   6  -5    1.96    2.90
   8  -6  -5   -1.26    2.98
   8   6  -4 1084.27   22.70
   8   6  -4 1050.16   22.22
   8  -6  -4 1051.83   22.31
   8   6  -4 1043.13   21.97
   8   6  -3  139.76    5.99
   8   6  -3  148.47    5.94
   8  -6  -3  135.41    5.87
   8   6  -3  135.29    5.21
   8   6  -3  140.86    5.79
  -8  -6   2  126.09    4.64
   8   6  -2  131.31    5.81
   8  -6  -2  128.38    5.78
   8   6  -2  128.89    5.39
  -8  -6   1   -0.32    2.24
   8   6  -1   -1.05    2.94
   8  -6  -1   -0.53    3.04
   8   6  -1    2.52    2.72
   8   6   0   87.96    5.05
  -8  -6   0   89.50    4.93
   8   6   1  109.59    5.83
  -8  -6  -1  106.85    5.66
   8   6   2  456.55   12.95
  -8  -6  -2  444.56   12.35
   8   6   3    4.37    4.14
  -8  -6  -3    3.67    3.82
  -8  -6  -4   -0.66    4.47
  -8  -6  -5   43.93    5.90
   8  -7 -11    5.15    5.19
   8   7 -10   -2.19    4.12
   8   7 -10    2.32    4.81
   8  -7 -10    0.97    4.78
   8   7  -9  175.14    7.35
   8   7  -9  189.07    8.07
   8  -7  -9  180.33    7.96
   8   7  -8    4.54    3.45
   8   7  -8    9.30    4.19
   8  -7  -8    2.28    3.94
   8   7  -8    7.76    3.96
   8   7  -7   42.29    4.22
   8   7  -7   40.68    4.55
   8  -7  -7   43.79    4.64
   8   7  -7   42.63    4.34
   8   7  -6  529.53   13.58
   8   7  -6  536.93   13.60
   8  -7  -6  541.21   13.49
   8   7  -6  536.28   13.08
   8   7  -6  530.20   13.30
   8  -7  -6  503.00   13.19
   8   7  -5  224.27    7.91
   8   7  -5  225.37    7.55
   8  -7  -5  225.47    7.65
   8   7  -5  226.80    7.58
   8   7  -4  467.66   12.82
   8   7  -4  512.35   12.41
   8  -7  -4  497.18   12.39
   8   7  -4  498.70   12.59
   8   7  -3   17.03    3.46
   8   7  -3   20.92    3.68
   8   7  -3   15.25    3.20
   8  -7  -3   13.59    3.22
  -8  -7   2   43.81    3.42
   8   7  -2   38.35    3.83
   8  -7  -2   42.38    4.03
   8   7  -2   35.38    3.67
  -8  -7   1   17.85    2.85
   8   7  -1   14.23    3.32
   8  -7  -1   17.97    3.54
   8   7  -1    8.57    3.22
  -8  -7   0  127.96    5.30
   8   7   0  136.22    6.28
   8  -7   0  142.27    6.35
   8   7   0  140.07    6.31
   8   7   1   36.12    4.45
  -8  -7  -1   29.14    4.23
   8   7   2  435.59   12.70
  -8  -7  -2  448.27   12.65
   8   7   3  153.42    7.65
  -8  -7  -3  138.44    7.33
  -8  -7  -4  222.42    9.11
   8   8 -10  471.00   13.34
   8  -8 -10  491.41   13.69
   8  -8  -9   28.83    5.02
   8   8  -9   26.01    4.83
   8   8  -8   34.02    4.54
   8  -8  -8   40.43    4.83
   8   8  -8   44.03    4.98
   8   8  -7   40.45    4.57
   8  -8  -7   44.72    4.72
   8   8  -7   40.30    4.78
   8   8  -6   32.16    4.27
   8   8  -6   40.99    4.72
   8   8  -5    6.79    3.46
   8   8  -5    4.22    3.27
   8  -8  -5    3.20    3.32
   8   8  -5    1.76    3.43
   8   8  -4    7.30    3.60
   8   8  -4    4.20    3.53
   8   8  -4    3.46    3.07
   8  -8  -4   -1.11    3.04
   8   8  -3   41.97    4.49
   8   8  -3   45.73    3.93
   8  -8  -3   47.52    3.91
  -8  -8   2  120.16    5.36
   8   8  -2  122.21    6.35
   8   8  -2  134.58    5.67
   8  -8  -2  127.25    5.61
   8   8  -2  132.86    5.94
   8   8  -2  127.92    6.23
  -8  -8   1    1.68    2.89
   8   8  -1    1.64    3.13
   8  -8  -1   -1.18    3.17
   8   8  -1    0.27    3.29
  -8  -8   0  145.37    5.89
   8  -8   0  145.21    6.28
   8   8   0  125.46    6.43
   8  -8   1   59.73    4.98
   8   8   1   46.24    4.96
  -8  -8  -1   43.67    4.87
   8   8   2   10.89    4.55
  -8  -8  -2   10.16    4.41
   8   8   3   15.27    5.08
  -8  -8  -3   14.44    5.00
   8   9 -10   -4.25    4.93
   8   9  -9    4.18    4.32
   8   9  -9    0.66    4.68
   8   9  -8    1.98    4.23
   8   9  -8   -1.00    4.47
   8   9  -7   62.43    5.30
   8   9  -7   53.85    5.40
   8   9  -6  194.47    8.18
   8   9  -6  191.78    7.83
   8   9  -5    4.90    3.87
   8   9  -5    5.74    3.88
   8   9  -4   81.19    5.71
   8   9  -4   88.77    5.69
   8   9  -3  359.61   11.00
  -8  -9   2  110.26    5.54
   8   9  -2  118.16    6.52
   8   9  -2  105.61    6.15
  -8  -9   1  567.06   13.88
   8   9  -1  575.11   15.25
   8   9  -1  582.45   14.75
  -8  -9   0   58.18    4.72
   8   9   0   71.17    5.55
   8   9   1  286.59    9.96
  -8  -9  -1  274.45    9.78
   8   9   2   67.26    6.12
  -8  -9  -2   63.55    6.03
   8   9   3   16.15    5.31
  -8  -9  -3   18.80    5.18
   8  10  -9   11.78    5.08
   8  10  -9   16.30    5.30
   8  10  -8    8.33    4.83
   8  10  -8   10.69    5.05
   8  10  -7  246.37    9.66
   8  10  -7  235.00    9.17
   8  10  -6   59.68    5.64
   8  10  -6   62.72    5.82
   8  10  -5   70.53    5.94
   8  10  -5   82.87    6.06
   8  10  -4  179.54    7.87
   8  10  -3   21.83    4.69
   8  10  -3   13.18    4.61
   8  10  -2    5.38    4.30
  -8 -10   2   -2.16    3.63
   8  10  -2    4.53    4.32
  -8 -10   1    0.53    3.64
   8  10  -1    5.26    4.47
   8  10  -1   -2.84    4.06
  -8 -10   0    9.84    4.06
   8  10   0    8.74    4.43
   8  10   1   41.76    5.45
  -8 -10  -1   53.96    5.84
   8  10   2  109.59    7.28
  -8 -10  -2  120.50    7.40
   8  11  -8   60.45    6.27
   8  11  -8   58.24    6.53
   8  11  -7   57.19    6.21
   8  11  -7   42.06    5.90
   8  11  -6   71.47    6.32
   8  11  -6   69.80    6.38
   8  11  -5    7.09    4.93
   8  11  -5    3.64    4.73
   8  11  -4   11.72    4.98
   8  11  -3    0.35    4.60
   8  11  -3   -1.88    4.81
   8  11  -2    9.30    4.91
  -8 -11   2    5.05    4.05
   8  11  -2    8.06    4.64
  -8 -11   1  279.39    9.54
   8  11  -1  285.71   10.45
   8  11  -1  291.28   10.23
  -8 -11   0   12.81    4.61
   8  11   0   16.59    4.98
   8  11   1    0.37    4.95
  -8 -11  -1    1.48    5.19
   8  12  -6    9.25    5.21
   8  12  -5   -1.43    5.14
   8  12  -5    7.97    5.45
   8  12  -4  241.22    9.85
   8  12  -3  147.26    8.27
   8  12  -3  144.30    8.23
   8  12  -2    1.12    5.24
  -8 -12   2   11.54    4.92
   8  12  -2    6.83    5.06
  -8 -12   1   -3.15    4.56
   8  12  -1    3.39    5.14
   8  12  -1    5.97    4.98
   9   0 -12   14.20    6.14
   9   0 -11    0.43    5.30
   9   0 -10  133.46    7.72
   9   0  -9    6.31    4.24
   9   0  -8  113.09    6.44
   9   0  -8  116.02    6.38
   9   0  -7    7.92    3.68
   9   0  -7   -0.33    3.16
   9   0  -6   75.23    5.03
   9   0  -6   79.88    5.20
   9   0  -5   -1.27    3.01
   9   0  -5   -1.20    2.60
   9   0  -4  103.48    5.68
   9   0  -3    3.15    3.03
   9   0  -3    2.25    1.94
   9   0  -2 1052.97   23.42
   9   0  -2 1037.60   20.50
   9   0  -2 1057.28   20.94
   9   0  -1   -2.02    2.27
   9   0  -1    0.78    2.43
   9   0   0  557.55   12.88
   9   0   0  531.59   13.07
   9   0   1    0.24    3.05
   9   0   1    1.04    3.17
   9   0   2    9.12    3.58
   9   0   2    7.92    3.66
   9   0   3    6.03    3.96
   9   0   3   -0.98    4.01
   9   0   4  129.65    7.24
   9   0   4  137.86    7.50
   9   1 -12    0.46    5.90
   9   1 -11   54.36    6.43
   9   1 -10  219.99    9.45
   9   1  -9  167.14    8.04
   9   1  -8    5.24    3.85
   9   1  -8    7.89    3.63
   9   1  -7  318.58   10.17
   9   1  -7  296.74    9.84
   9   1  -6   57.60    4.63
   9   1  -6   65.40    4.80
   9   1  -5  222.26    7.99
   9   1  -5  220.46    8.21
   9   1  -4  105.30    3.58
   9   1  -4  105.42    5.55
   9   1  -3  189.46    5.08
   9   1  -3  181.65    7.37
   9   1  -3  192.02    5.56
   9   1  -2  520.91   14.11
   9   1  -2  516.91   11.47
   9   1  -2  548.43   12.05
   9   1  -1    6.97    2.51
   9  -1  -1    5.27    2.57
   9   1  -1    4.75    2.53
   9   1   0   42.68    3.62
   9  -1   0   46.50    3.82
   9   1   0   46.87    3.88
   9  -1   1   70.18    4.62
   9   1   1   85.50    4.82
   9  -1   1   68.11    4.82
   9   1   1   78.59    4.93
  -9  -1  -1   69.13    4.04
   9  -1   2    2.44    3.51
   9   1   2    2.69    3.51
   9  -1   2    1.17    3.55
   9   1   2    3.51    3.54
  -9  -1  -2    1.25    3.00
   9   1   3   19.03    4.37
   9   1   3   10.39    4.24
  -9  -1  -3   14.45    3.66
   9   1   4  258.10    9.72
   9   1   4  268.49   10.03
   9   2 -12    0.45    5.86
   9  -2 -12   -0.90    5.84
   9   2 -11  175.89    9.14
   9  -2 -11  186.19    9.24
   9  -2 -10   79.15    6.51
   9   2 -10   99.23    6.96
   9   2  -9    1.86    4.27
   9  -2  -9    0.37    4.07
   9   2  -8 1082.14   24.05
   9  -2  -8 1036.92   24.00
   9   2  -8 1057.98   24.02
   9  -2  -8 1063.15   24.04
   9   2  -7   45.49    4.77
   9  -2  -7   41.49    4.52
   9   2  -7   39.28    4.27
   9  -2  -7   40.07    4.31
   9   2  -6   49.12    4.55
   9   2  -6   39.67    4.01
   9  -2  -6   36.89    4.06
   9  -2  -6   52.73    4.72
   9   2  -5  451.10   12.36
   9  -2  -5  454.42   12.44
   9  -2  -5  472.99   12.87
   9   2  -4    3.78    1.77
   9   2  -4    3.10    3.07
   9  -2  -4    1.87    2.82
   9   2  -3  233.20    5.87
   9   2  -3  229.83    8.29
   9  -2  -3  219.81    8.09
   9   2  -3  226.06    6.27
   9   2  -2   50.96    4.52
   9  -2  -2   56.36    4.55
   9   2  -2   44.53    2.99
   9   2  -2   44.25    3.23
   9   2  -1    5.01    2.48
   9   2  -1   -1.20    2.44
  -9  -2   1    2.90    2.13
   9   2   0  175.03    6.12
   9   2   0  164.52    6.29
  -9  -2   0  160.95    5.46
   9   2   1    7.13    3.19
   9   2   1    6.91    3.42
  -9  -2  -1    8.23    2.87
   9   2   2   12.46    3.70
   9   2   2   11.98    3.97
  -9  -2  -2    8.82    3.37
   9   2   3   97.20    6.01
   9   2   3   94.40    6.16
  -9  -2  -3   85.47    5.35
   9   2   4   25.15    4.97
   9   2   4   25.14    5.22
  -9  -2  -4   17.49    4.37
   9   3 -12   -2.22    5.77
   9  -3 -12    4.42    6.05
   9   3 -11   35.17    6.05
   9  -3 -11   32.06    5.85
   9   3 -10    9.03    4.82
   9  -3 -10   -7.01    4.78
   9   3  -9    2.22    4.40
   9  -3  -9    8.03    4.61
   9   3  -8    3.21    2.63
   9   3  -8    2.41    3.85
   9  -3  -8    5.13    4.02
   9   3  -8    4.40    3.78
   9  -3  -8    1.05    3.70
   9   3  -7   54.54    3.66
   9   3  -7   55.17    4.91
   9  -3  -7   54.51    4.85
   9   3  -7   43.45    4.43
   9  -3  -7   54.11    4.78
   9   3  -6    7.60    3.49
   9  -3  -6   11.85    3.66
   9   3  -6    7.87    2.62
   9   3  -6    6.03    3.08
   9  -3  -6    7.42    3.35
   9   3  -5  144.42    6.38
   9  -3  -5  163.66    6.81
   9   3  -4   24.22    2.31
   9   3  -4   22.48    3.44
   9  -3  -4   21.73    3.52
   9   3  -3  209.45    7.78
   9  -3  -3  187.14    7.53
   9   3  -3  201.82    5.91
   9   3  -2   69.18    5.05
   9  -3  -2   69.01    4.90
   9   3  -2   74.73    3.92
  -9  -3   2   72.94    3.47
   9   3  -1  280.23    8.23
  -9  -3   1  303.88    7.84
   9   3   0    1.69    2.65
   9   3   0    7.11    3.01
  -9  -3   0    5.83    2.73
   9   3   1  712.44   16.48
   9   3   1  716.32   16.81
  -9  -3  -1  708.00   15.78
   9   3   2   17.77    3.99
   9   3   2   10.90    3.88
  -9  -3  -2   14.62    3.64
   9   3   3  543.78   14.26
   9   3   3  533.56   14.59
  -9  -3  -3  504.02   13.40
   9   3   4    2.37    4.69
   9   3   4   -1.82    4.65
  -9  -3  -4   -4.97    4.33
  -9  -3  -5   -0.31    4.70
   9   4 -12   20.30    6.32
   9  -4 -12   24.85    6.39
   9   4 -11  260.26   10.76
   9  -4 -11  270.90   10.92
   9   4 -10   19.73    5.34
   9  -4 -10   19.12    5.11
   9   4  -9    4.72    4.58
   9  -4  -9   -2.16    4.35
   9   4  -8  384.12   11.78
   9  -4  -8  375.48   11.72
   9   4  -8  385.83    9.89
   9   4  -8  362.36   11.71
   9  -4  -8  385.51   11.86
   9   4  -7   14.33    3.78
   9   4  -7   12.02    2.56
   9  -4  -7   13.83    3.77
   9   4  -7   17.34    4.17
   9  -4  -7   14.81    4.11
   9   4  -7   19.20    3.19
   9   4  -6   17.76    3.92
   9  -4  -6   17.98    4.03
   9   4  -6   21.17    3.28
   9   4  -6   16.20    3.55
   9  -4  -6   18.21    3.73
   9   4  -5  789.62   17.68
   9   4  -5  805.92   15.94
   9   4  -5  841.07   18.86
   9  -4  -5  812.96   18.82
   9   4  -4    2.22    2.12
   9   4  -4    6.65    3.08
   9  -4  -4    1.46    2.99
   9   4  -3  499.82   13.12
   9  -4  -3  451.11   12.78
   9   4  -3  489.37   11.17
   9   4  -2  126.23    6.28
   9  -4  -2  120.21    6.08
   9   4  -2  127.28    5.17
  -9  -4   2  117.85    4.72
   9   4  -1   -3.03    3.65
   9  -4  -1    0.66    3.34
   9   4  -1    4.87    2.96
  -9  -4   1    0.91    2.48
   9   4   0    3.98    3.15
  -9  -4   0    4.71    2.87
   9   4   1   18.65    3.96
  -9  -4  -1   25.93    3.59
   9   4   2    9.97    3.83
   9   4   2   15.13    4.21
  -9  -4  -2   11.03    3.64
   9   4   3  165.73    7.53
   9   4   3  140.94    7.42
  -9  -4  -3  144.19    6.88
   9   4   4  115.33    7.10
   9   4   4  123.87    7.48
  -9  -4  -4  119.55    6.89
   9   5 -11   87.11    7.44
   9  -5 -11  109.73    7.77
   9   5 -10   32.22    5.75
   9  -5 -10   31.51    5.50
   9   5  -9  111.84    5.49
   9   5  -9  126.72    7.15
   9  -5  -9  126.98    7.17
   9   5  -8   20.52    4.73
   9  -5  -8   19.60    4.48
   9   5  -8   20.89    3.55
   9   5  -7  699.08   15.85
   9   5  -7  664.17   16.97
   9  -5  -7  662.79   16.87
   9   5  -7  686.11   14.84
   9   5  -7  699.39   16.92
   9  -5  -7  691.33   16.99
   9   5  -6    6.61    2.80
   9   5  -6    1.76    3.22
   9   5  -6    0.32    3.85
   9  -5  -6    1.86    3.80
   9  -5  -6    4.54    3.51
   9   5  -6    1.92    3.07
   9   5  -5  209.47    7.43
   9   5  -5  209.25    5.95
   9   5  -5  234.61    8.06
   9  -5  -5  222.49    8.05
   9   5  -4   49.30    4.20
   9   5  -4   49.38    3.32
   9   5  -4   50.76    4.32
   9  -5  -4   47.08    4.37
   9   5  -3   57.39    4.61
   9  -5  -3   59.51    4.69
   9   5  -3   53.78    3.57
   9   5  -2  245.46    8.66
   9  -5  -2  238.60    8.51
   9   5  -2  226.24    7.25
   9   5  -1   19.67    4.06
   9  -5  -1   21.26    4.10
   9   5  -1   23.38    3.53
  -9  -5   1   25.47    3.38
   9   5   0   25.40    3.86
  -9  -5   0   21.02    3.42
   9   5   1  183.04    7.49
  -9  -5  -1  184.48    7.06
   9   5   2    6.70    4.17
  -9  -5  -2    0.27    3.71
   9   5   3   11.99    4.60
   9   5   3   -0.35    4.48
  -9  -5  -3   -2.36    4.31
   9   5   4   98.06    6.73
   9   5   4   94.41    6.90
  -9  -5  -4   83.26    6.43
   9   6 -11   23.86    5.86
   9  -6 -11   25.79    5.86
   9   6 -10  127.47    7.69
   9  -6 -10  122.19    7.51
   9   6  -9   -2.07    4.63
   9   6  -9    1.97    3.74
   9  -6  -9    0.68    4.65
   9   6  -8   91.27    5.41
   9   6  -8   94.70    6.37
   9  -6  -8   95.49    6.43
   9   6  -7    4.46    3.15
   9   6  -7   -3.61    3.54
   9  -6  -7    1.86    3.86
   9   6  -7   -3.15    4.02
   9  -6  -7    6.80    4.12
   9   6  -7   -5.75    3.51
   9   6  -6  140.38    6.45
   9   6  -6  152.77    6.70
   9  -6  -6  161.26    6.89
   9   6  -6  156.37    6.04
   9   6  -5  103.15    5.60
   9   6  -5   98.68    4.30
   9   6  -5  106.89    5.73
   9  -6  -5   94.89    5.61
   9   6  -5  102.16    5.12
   9   6  -4    1.36    3.12
   9  -6  -4    0.56    3.37
   9   6  -4    2.23    3.21
   9   6  -4   -0.53    2.52
   9   6  -3   17.23    3.07
   9   6  -3   19.54    3.71
   9  -6  -3   21.72    3.88
   9   6  -2  629.63   15.50
   9  -6  -2  633.58   15.44
   9   6  -2  603.77   14.48
   9   6  -1  107.66    6.12
   9  -6  -1  115.05    6.08
   9   6  -1  104.88    5.53
  -9  -6   1  112.54    5.38
   9   6   0  437.14   12.61
   9  -6   0  438.78   12.52
   9   6   0  435.60   11.99
  -9  -6   0  414.38   11.35
   9   6   1    6.81    4.05
  -9  -6  -1    6.00    3.83
   9   6   2   47.46    5.25
  -9  -6  -2   54.08    5.16
   9   6   3   61.64    6.02
  -9  -6  -3   63.61    5.71
   9  -7 -11    5.71    5.44
   9   7 -10  171.04    8.51
   9  -7 -10  155.19    8.22
   9   7  -9   69.63    6.17
   9  -7  -9   62.24    5.94
   9   7  -9   54.52    5.15
   9   7  -8   20.57    3.92
   9   7  -8   10.77    4.59
   9  -7  -8   10.54    4.72
   9   7  -8   19.62    4.28
   9   7  -7   77.70    5.59
   9   7  -7   89.16    5.65
   9   7  -7   74.56    5.82
   9  -7  -7   81.95    5.93
   9   7  -7   81.63    5.07
   9   7  -6   99.01    5.80
   9   7  -6   92.21    5.27
   9   7  -6   91.51    5.67
   9  -7  -6   94.10    5.81
   9   7  -5   11.77    3.68
   9   7  -5    7.44    3.59
   9  -7  -5   12.09    3.80
   9   7  -5   17.94    4.26
   9   7  -5    5.66    2.79
   9   7  -4   29.78    4.15
   9   7  -4   37.57    4.08
   9  -7  -4   38.36    4.28
   9   7  -4   37.60    4.50
   9   7  -4   35.07    3.63
   9   7  -3  253.16    8.81
   9   7  -3  232.67    7.69
   9   7  -3  243.76    8.19
   9  -7  -3  248.72    8.33
   9   7  -2  422.40   11.70
   9  -7  -2  424.88   11.75
   9   7  -2  420.12   11.25
   9   7  -1   -0.87    3.65
   9  -7  -1    1.76    3.79
   9   7  -1   -4.63    3.69
   9   7   0   34.77    4.71
   9  -7   0   43.01    4.89
   9   7   0   40.70    4.71
  -9  -7   0   40.01    4.56
   9   7   1    8.83    4.12
  -9  -7  -1   15.57    4.49
   9   7   2   14.28    4.72
  -9  -7  -2   10.71    4.58
   9   7   3   70.69    6.46
  -9  -7  -3   67.79    5.94
   9   8 -10   67.74    5.98
   9   8  -9   65.15    5.71
   9  -8  -9   78.83    6.39
   9   8  -8  823.55   19.33
   9  -8  -8  823.23   19.33
   9   8  -8  814.37   18.45
   9   8  -7   87.05    5.92
   9   8  -7   98.45    5.71
   9   8  -6    7.23    3.81
   9  -8  -6    8.59    3.94
   9   8  -6    4.44    4.02
   9   8  -5  181.39    7.93
   9  -8  -5  180.22    7.20
   9   8  -5  178.74    7.35
   9   8  -4    6.57    3.84
   9   8  -4   10.38    3.91
   9  -8  -4    7.38    3.67
   9   8  -4    3.80    3.17
   9  -8  -3   48.43    4.50
   9   8  -3   53.59    5.13
   9   8  -3   46.12    4.33
   9   8  -2    8.85    3.74
   9  -8  -2    4.94    3.64
   9  -8  -1   -3.25    3.86
   9   8  -1    2.91    3.92
   9  -8   0  134.81    6.63
   9   8   0  147.60    7.20
  -9  -8   0  143.94    6.97
   9  -8   1    9.88    4.35
   9   8   1   11.75    4.55
  -9  -8  -1    8.84    4.39
   9   8   2   22.77    5.18
  -9  -8  -2   25.49    5.14
   9   9 -10   41.04    5.81
   9   9  -9   -0.66    4.79
   9   9  -8    8.89    4.59
   9   9  -8   16.65    4.88
   9   9  -7    5.39    4.31
   9   9  -7    9.70    4.62
   9   9  -6   23.16    4.49
   9   9  -6   36.11    5.11
   9   9  -5   30.07    4.86
   9   9  -5   37.78    5.09
   9   9  -4  171.51    7.92
   9   9  -4  192.50    7.93
   9   9  -3   34.12    5.11
   9   9  -3   33.36    4.33
   9   9  -2  159.27    7.15
   9   9  -1  133.31    6.81
   9   9   0   10.33    4.69
  -9  -9   0    2.24    4.40
   9   9   1  209.70    8.95
  -9  -9  -1  216.38    8.94
   9  10  -8   23.47    5.10
   9  10  -8   24.20    5.47
   9  10  -7    6.15    4.60
   9  10  -7    9.62    5.11
   9  10  -6   12.38    4.79
   9  10  -6    8.33    4.71
   9  10  -5  192.56    8.63
   9  10  -5  177.05    8.20
   9  10  -4   78.60    6.43
   9  10  -4   77.46    6.18
   9  10  -3  230.50    8.51
   9  10  -3  226.76    9.20
   9  10  -2  147.18    7.86
   9  10  -2  153.12    7.34
   9  10  -1    7.52    4.75
   9  10   0    9.37    4.89
  -9 -10   0    7.17    4.78
   9  11  -7  227.91    9.34
   9  11  -6   34.19    5.62
   9  11  -6   39.30    6.08
   9  11  -5  185.63    8.94
   9  11  -5  167.23    8.34
   9  11  -4   11.71    5.22
   9  11  -3   12.68    5.23
   9  11  -3   16.83    5.28
   9  11  -3   20.26    4.66
   9  11  -2    7.68    5.15
   9  11  -2   12.38    4.93
   9  11  -1   19.55    5.26
  10   0 -12  289.57   12.25
  10   0 -11   -4.53    5.86
  10   0 -10    4.28    4.99
  10   0  -9   -6.46    4.98
  10   0  -9    4.40    4.21
  10   0  -8  243.05    9.63
  10   0  -8  236.77    9.39
  10   0  -7    5.76    3.72
  10   0  -7    5.15    3.99
  10   0  -6  150.25    7.08
  10   0  -6  144.08    7.34
  10   0  -5    0.69    3.29
  10   0  -4  311.90   10.66
  10   0  -3   -1.46    3.38
  10   0  -3    1.23    2.33
  10   0  -2   16.98    4.08
  10   0  -2   20.08    3.04
  10   0  -1   -1.62    3.92
  10   0  -1   -1.89    2.75
  10   0  -1   -2.65    2.87
  10   0   0  375.72   10.22
  10   0   0  378.14   10.68
  10   0   1    4.62    3.55
  10   0   1    1.15    3.66
  10   0   2  706.66   16.90
  10   0   2  680.47   17.26
  10   1 -11   10.40    5.88
  10   1 -10   29.93    5.85
  10   1  -9   69.39    6.12
  10   1  -9   52.44    5.85
  10   1  -8   44.80    5.13
  10   1  -8   39.60    5.26
  10   1  -7  282.28   10.19
  10   1  -7  286.83   10.08
  10   1  -6    9.52    3.93
  10   1  -6   -0.35    3.43
  10   1  -5  188.94    7.80
  10   1  -4  121.23    6.63
  10   1  -3   85.68    3.95
  10   1  -3   89.16    5.85
  10   1  -2    5.28    2.43
  10   1  -2    3.78    3.65
  10   1  -2    4.69    2.69
  10   1  -1   96.30    6.54
  10   1  -1   88.04    4.53
  10   1  -1   88.21    4.76
  10   1   0  365.58    9.83
  10   1   0  335.43   10.05
  10   1   1    5.90    3.63
  10   1   1   10.87    3.97
  10   1   2   53.71    5.09
  10   1   2   49.67    5.11
  10   1   3   37.52    5.37
  10   1   3   43.58    5.65
  10   2 -11   57.80    6.82
  10  -2 -11   58.18    6.90
  10   2 -10    1.70    4.97
  10  -2 -10    1.69    5.16
  10   2  -9  323.84   11.63
  10  -2  -9  323.97   11.53
  10   2  -8   13.81    4.67
  10  -2  -8   12.16    4.52
  10   2  -8    9.19    4.02
  10  -2  -8   14.65    4.31
  10   2  -7    4.05    4.10
  10  -2  -7    6.57    4.26
  10   2  -7    9.56    3.74
  10  -2  -7   10.11    4.01
  10   2  -6 1097.56   24.54
  10  -2  -6 1080.78   24.50
  10   2  -5    8.15    3.72
  10  -2  -5    7.54    3.69
  10   2  -4  143.57    4.74
  10   2  -4  146.61    7.16
  10  -2  -4  144.76    7.10
  10   2  -3  585.07   15.70
  10  -2  -3  577.82   15.59
  10   2  -3  594.95   13.05
  10   2  -2    4.95    2.51
  10   2  -2    3.00    3.75
  10  -2  -2    0.37    3.61
  10   2  -2    0.98    2.67
  10   2  -1  356.04   11.76
  10  -2  -1  332.87   11.56
  10   2  -1  327.87    9.04
  10   2  -1  355.53    9.73
  10   2   0   20.78    3.63
  10   2   0   22.66    3.93
  10   2   1    6.49    3.59
  10   2   1    2.93    3.70
  10   2   2  104.06    6.11
  10   2   2   92.87    6.21
  10   2   3    3.52    4.66
  10   2   3   12.19    4.91
  10   3 -11  142.54    8.79
  10  -3 -11  156.23    8.95
  10   3 -10   17.17    5.57
  10  -3 -10   16.18    5.39
  10   3  -9   22.67    5.17
  10  -3  -9   25.63    5.35
  10   3  -8    8.77    4.45
  10  -3  -8    9.80    4.64
  10   3  -8   10.93    4.09
  10  -3  -8   14.62    4.32
  10   3  -7    4.40    4.31
  10  -3  -7    6.16    4.15
  10   3  -7    8.39    4.04
  10  -3  -7    4.31    3.91
  10   3  -6   13.76    3.98
  10  -3  -6    4.58    3.69
  10   3  -5   16.11    3.88
  10  -3  -5   11.25    3.87
  10   3  -4   48.09    3.09
  10   3  -4   43.37    4.70
  10  -3  -4   42.70    4.65
  10   3  -3   70.85    5.58
  10  -3  -3   68.95    5.36
  10   3  -3   64.02    3.81
  10   3  -2    0.99    2.47
  10   3  -2    1.85    3.75
  10  -3  -2    0.36    3.72
  10   3  -2    1.41    2.71
  10   3  -1  418.36   12.89
  10  -3  -1  400.01   12.65
  10   3  -1  412.99   10.38
  10   3  -1  389.13   10.71
  10   3   0   23.54    3.72
  10   3   0   19.09    3.98
  10   3   1    1.58    3.60
  10   3   1    5.07    3.79
  10   3   2    7.96    4.25
  10   3   2    0.99    4.29
  10   3   3  176.49    8.24
  10   3   3  179.84    8.54
  10   4 -11  209.03   10.13
  10  -4 -11  216.25   10.09
  10   4 -10   18.07    5.83
  10  -4 -10    7.31    5.60
  10   4  -9  357.12   12.15
  10  -4  -9  332.78   11.74
  10  -4  -8   24.15    4.78
  10   4  -8   29.94    5.16
  10  -4  -8   28.13    5.14
  10   4  -8   35.01    3.87
  10   4  -8   31.67    4.80
  10   4  -7    4.77    4.44
  10  -4  -7    7.18    4.52
  10   4  -7   12.03    4.23
  10  -4  -7    7.80    4.18
  10   4  -6  324.26   10.52
  10  -4  -6  319.06   10.62
  10   4  -5   -0.33    3.51
  10  -4  -5   -4.03    3.78
  10   4  -4  109.96    4.45
  10   4  -4  114.18    6.35
  10  -4  -4  105.47    6.24
  10   4  -3  402.99   11.85
  10  -4  -3  353.77   11.34
  10   4  -3  354.28    9.33
  10   4  -2   81.13    4.24
  10   4  -2   99.19    6.20
  10  -4  -2   93.63    5.99
  10   4  -2   75.16    4.57
  10   4  -1  539.58   15.01
  10  -4  -1  530.08   14.81
  10   4  -1  518.51   12.55
  10   4  -1  523.72   13.08
  10   4   0   79.16    5.01
  10   4   0   73.98    5.26
  10   4   1   14.12    4.02
  10   4   1   14.87    4.43
  10   4   2    4.52    4.11
  10   4   2   14.36    4.70
  10   4   3    1.64    4.72
  10   4   3    5.06    4.78
  10   5 -11   37.05    6.64
  10  -5 -11   30.80    6.66
  10   5 -10   46.35    6.39
  10  -5 -10   40.30    6.14
  10   5  -9  102.57    7.23
  10  -5  -9  113.75    7.36
  10  -5  -8    4.03    4.34
  10   5  -8   11.76    4.82
  10  -5  -8    7.60    4.80
  10   5  -8    5.69    3.43
  10   5  -8    3.55    4.26
  10   5  -7  407.50   11.22
  10   5  -7  407.75   12.82
  10  -5  -7  446.67   13.06
  10   5  -7  404.20   12.37
  10  -5  -7  429.35   12.58
  10   5  -6    2.60    3.56
  10   5  -6    1.32    3.85
  10  -5  -6   12.19    4.27
  10   5  -5  127.17    6.54
  10  -5  -5  113.84    6.45
  10   5  -4   18.78    3.03
  10   5  -4   21.11    4.10
  10  -5  -4   25.87    4.32
  10   5  -3  149.18    7.15
  10   5  -3  154.83    5.86
  10  -5  -3  145.06    7.13
  10   5  -2   17.14    4.40
  10  -5  -2   17.59    4.30
  10   5  -2   13.46    3.44
  10   5  -1   28.67    4.79
  10  -5  -1   43.60    5.21
  10   5  -1   45.39    4.42
  10   5   0  186.77    8.50
  10  -5   0  182.06    8.43
  10   5   0  171.72    7.33
 -10  -5   0  166.39    6.79
  10   5   1   59.31    5.19
  10   5   1   65.79    5.44
 -10  -5  -1   56.25    4.82
  10   5   2   22.30    4.94
  10   5   2   25.56    5.21
 -10  -5  -2   16.10    4.42
  10   6 -11    3.99    5.84
  10  -6 -11    8.62    5.81
  10   6 -10    0.39    5.49
  10  -6 -10    7.96    5.68
  10   6  -9   29.21    5.70
  10  -6  -9   28.80    5.84
  10   6  -9   30.46    4.68
  10   6  -8  101.95    5.89
  10   6  -8  112.67    7.04
  10  -6  -8  105.57    7.07
  10   6  -7    5.97    3.45
  10   6  -7   13.22    3.90
  10   6  -7    6.47    4.04
  10  -6  -7    8.77    4.31
  10   6  -6  167.29    7.12
  10   6  -6  170.74    7.57
  10  -6  -6  147.07    7.45
  10   6  -5    1.47    3.61
  10   6  -5   -2.50    3.71
  10  -6  -5    4.51    3.81
  10   6  -4  119.13    5.20
  10   6  -4  122.60    6.39
  10  -6  -4  130.38    6.56
  10   6  -3   47.24    4.02
  10   6  -3   48.85    5.05
  10  -6  -3   49.35    5.07
  10   6  -2   30.88    4.60
  10  -6  -2   31.13    4.53
  10   6  -2   29.21    3.91
 -10  -6   2   25.89    3.61
  10   6  -1   76.44    5.89
  10  -6  -1   60.52    5.53
  10   6  -1   69.46    5.15
 -10  -6   1   69.54    4.78
  10   6   0  389.35   12.16
  10  -6   0  361.85   11.77
  10   6   0  363.15   11.00
 -10  -6   0  343.08   10.37
  10   6   1   31.70    4.89
 -10  -6  -1   25.38    4.50
  10   6   2  281.97   10.06
  10   6   2  284.64   10.47
 -10  -6  -2  273.22    9.56
  10   7 -10   33.31    5.84
  10  -7 -10   21.58    5.76
  10   7  -9    7.85    5.45
  10  -7  -9    9.73    5.18
  10   7  -9   10.46    4.59
  10   7  -8  106.28    6.32
  10  -7  -8   95.29    6.85
  10  -7  -7   88.89    6.17
  10   7  -7   97.07    6.20
  10   7  -7   73.14    5.25
  10   7  -7   79.94    5.98
  10   7  -6    0.25    3.78
  10   7  -6   -0.31    4.05
  10   7  -6   -1.50    3.94
  10  -7  -6   -0.31    4.00
  10   7  -5   13.67    4.41
  10   7  -5   12.40    4.25
  10  -7  -5    9.11    4.00
  10   7  -4  179.90    6.66
  10   7  -4  189.90    7.79
  10  -7  -4  203.26    8.03
  10   7  -3    7.07    3.43
  10   7  -3   11.78    3.96
  10  -7  -3    9.30    3.93
  10   7  -2    1.57    3.99
  10  -7  -2   11.66    4.41
  10   7  -2    3.38    3.79
  10   7  -1   90.76    6.02
  10  -7  -1   71.10    5.79
  10   7  -1   85.68    5.78
 -10  -7   1   75.60    5.30
  10   7   0  213.37    8.70
  10  -7   0  193.85    8.44
  10   7   0  202.26    8.47
 -10  -7   0  196.03    7.98
  10   7   1    3.93    4.95
  10  -7   1   -6.73    5.06
  10   7   1    7.07    4.73
 -10  -7  -1    1.47    4.34
 -10  -7  -2   13.40    4.69
  10   8  -9   10.41    4.89
  10   8  -8    4.59    4.69
  10   8  -7   37.55    4.92
  10   8  -7   52.46    5.58
  10   8  -6  910.65   21.40
  10   8  -6  920.57   20.52
  10  -8  -6  917.32   20.83
  10   8  -5   95.68    6.27
  10  -8  -5   88.03    5.91
  10   8  -4   94.65    6.50
  10   8  -4   84.43    5.16
  10  -8  -4   79.69    5.75
  10   8  -3   92.52    5.59
  10  -8  -3   83.06    5.69
  10   8  -2   -0.84    4.02
  10  -8  -2    0.29    4.11
  10   8  -1   73.69    5.73
  10  -8  -1   73.44    5.86
 -10  -8   1   76.42    5.68
  10   8   0   -3.70    4.66
 -10  -8   0    0.30    4.31
  10   8   1   15.83    5.19
 -10  -8  -1    7.20    4.72
  10   9  -8   38.44    5.82
  10   9  -7    5.76    4.54
  10   9  -7    8.60    4.97
  10   9  -6    6.27    4.68
  10   9  -6   -2.86    4.79
  10   9  -5    6.84    4.78
  10   9  -5   -1.08    4.66
  10   9  -4   26.71    5.24
  10   9  -4   45.24    4.76
  10   9  -3   22.47    4.54
  10   9  -2   17.14    4.66
  10   9  -1   97.47    6.52
 -10  -9   1   93.06    6.32
  10   9   0  108.98    7.07
 -10  -9   0  111.73    6.78
  10  10  -7    3.72    4.94
  10  10  -6   69.31    6.14
  10  10  -6   59.27    6.53
  10  10  -5    5.64    4.92
  10  10  -5   -3.03    5.03
  10  10  -4    8.79    5.40
  10  10  -3  147.03    7.31
  10  10  -2   47.40    5.60
  11   0 -11   -2.84    5.92
  11   0 -10  710.88   19.52
  11   0  -9    3.50    5.33
  11   0  -9    2.14    4.70
  11   0  -8    4.21    4.90
  11   0  -8    5.29    4.53
  11   0  -7   -2.00    4.10
  11   0  -6   25.52    4.79
  11   0  -5   -1.17    3.95
  11   0  -4  136.76    7.69
  11   0  -3    3.31    4.16
  11   0  -2  318.25   11.53
  11   0  -1    3.16    4.87
  11   1 -11   22.24    6.55
  11   1 -10  150.25    8.90
  11   1  -9   12.23    5.50
  11   1  -9   17.79    5.06
  11   1  -8  217.63    9.68
  11   1  -8  209.74    9.38
  11   1  -7   80.18    6.27
  11   1  -6   -2.73    4.16
  11   1  -5  439.48   13.36
  11   1  -4   12.50    4.46
  11   1  -3    9.09    4.34
  11   1  -2  189.29    8.94
  11   1  -2  195.48    6.80
  11   1  -1    0.45    4.58
  11   1  -1   -0.82    3.12
  11   1  -1    1.22    3.32
  11   1   0   96.28    5.40
  11   1   0  100.02    5.84
  11   1   1   69.01    5.43
  11   1   1   68.14    5.78
  11   1   2   54.93    5.54
  11   1   2   50.70    5.78
  11   2 -11   16.88    6.46
  11  -2 -11   17.70    6.46
  11   2 -10   20.29    6.09
  11  -2 -10   19.25    5.92
  11   2  -9   61.96    6.16
  11   2  -9   46.29    6.33
  11  -2  -9   52.40    6.48
  11  -2  -9   62.49    6.31
  11   2  -8   24.37    5.69
  11  -2  -8   23.33    5.38
  11   2  -8   27.44    4.99
  11  -2  -8   15.91    4.90
  11   2  -7  297.38   10.92
  11  -2  -7  302.17   10.98
  11   2  -6   42.20    5.11
  11  -2  -6   41.50    5.08
  11   2  -5  114.35    6.74
  11  -2  -5  112.74    6.81
  11   2  -4  538.79   15.40
  11  -2  -4  523.83   15.23
  11   2  -3   17.86    3.15
  11   2  -3   16.01    4.50
  11  -2  -3   12.54    4.40
  11   2  -2  208.45    9.16
  11  -2  -2  190.47    8.87
  11   2  -2  193.60    6.89
  11   2  -1  151.37    8.32
  11  -2  -1  142.87    8.10
  11   2  -1  130.80    5.68
  11   2  -1  125.94    6.04
  11   2   0   43.65    4.53
  11   2   0   51.06    4.87
  11   2   1  178.41    7.42
  11   2   1  187.89    7.95
  11   2   2    9.62    4.57
  11   2   2    8.44    4.95
  11   3 -11  360.68   13.32
  11  -3 -11  346.60   13.15
  11   3 -10    6.68    5.75
  11  -3 -10   21.62    6.40
  11   3  -9   75.16    7.01
  11  -3  -9   60.01    6.68
  11   3  -9   58.49    6.30
  11  -3  -9   74.18    6.70
  11   3  -8   15.83    4.86
  11  -3  -8    9.28    4.53
  11   3  -8   18.88    5.44
  11  -3  -8   11.99    5.11
  11   3  -7   41.68    5.29
  11  -3  -7   46.21    5.54
  11   3  -6   15.69    4.56
  11  -3  -6   15.57    4.59
  11   3  -5   54.98    5.27
  11  -3  -5   48.79    5.30
  11   3  -4    3.56    4.13
  11  -3  -4    5.04    4.31
  11   3  -3   18.04    3.21
  11   3  -3   22.39    4.98
  11  -3  -3   20.68    4.80
  11   3  -2    6.31    4.65
  11  -3  -2    1.23    4.38
  11   3  -2    4.05    3.32
  11   3  -1   32.18    3.96
  11   3  -1   35.53    5.62
  11  -3  -1   45.87    6.05
  11   3  -1   33.68    4.28
  11   3   0   -3.18    5.37
  11  -3   0    2.24    5.26
  11   3   0   -0.99    3.71
  11   3   0   -2.30    3.90
  11   3   1  158.77    7.27
  11   3   1  171.89    7.85
  11   3   2    6.99    4.63
  11   3   2   -0.68    4.74
  11   4 -10   36.22    6.57
  11  -4 -10   37.14    6.61
  11   4  -9   31.99    6.03
  11  -4  -9   23.60    5.83
  11   4  -8    0.83    5.11
  11  -4  -8    2.86    5.21
  11   4  -8   -2.32    4.46
  11  -4  -8   10.37    4.71
  11   4  -7  452.63   13.75
  11  -4  -7  461.64   14.02
  11   4  -6   18.46    4.69
  11  -4  -6   20.27    4.81
  11  -4  -5   57.49    5.59
  11   4  -5   65.91    5.76
  11   4  -4  244.98    9.52
  11  -4  -4  207.87    8.89
  11   4  -3   16.97    3.32
  11   4  -3   19.82    4.87
  11  -4  -3   22.48    4.83
  11   4  -2   97.49    6.85
  11  -4  -2   89.52    6.67
  11   4  -2   84.73    5.16
  11   4  -1   91.88    7.01
  11   4  -1   79.83    4.96
  11  -4  -1   96.68    7.05
  11   4  -1   97.64    5.73
  11   4   0  101.70    7.48
  11  -4   0  106.01    7.66
  11   4   0   91.13    5.61
  11   4   0  108.49    6.29
  11   4   1  269.90    9.43
  11   4   1  274.47    9.95
  11   4   2    3.09    4.74
  11   5 -10   49.23    6.82
  11  -5 -10   41.54    6.69
  11   5  -9    4.95    5.46
  11  -5  -9    1.62    5.70
  11   5  -8  103.62    7.07
  11  -5  -8   95.09    7.10
  11   5  -7   23.52    4.95
  11  -5  -7   28.04    5.24
  11   5  -6   47.69    5.31
  11  -5  -6   42.67    5.41
  11   5  -5  674.56   17.30
  11  -5  -5  645.37   17.12
  11   5  -4    9.01    4.26
  11  -5  -4   11.17    4.45
  11   5  -3    0.42    3.23
  11   5  -3   -1.19    4.62
  11  -5  -3    2.75    4.56
  11   5  -2   39.51    5.50
  11  -5  -2   49.13    5.60
  11   5  -2   44.31    4.45
  11   5  -1  107.22    7.16
  11  -5  -1  121.95    7.44
  11   5  -1  106.33    6.07
  11   5   0    9.50    5.12
  11  -5   0   13.95    5.58
  11   5   0   13.03    4.07
  11   5   0   14.48    4.45
  11   5   1   20.17    5.85
  11  -5   1   29.91    6.12
  11   5   1   30.85    4.89
  11   5   1   26.40    5.19
  11   6 -10  299.49   11.70
  11  -6 -10  301.22   11.72
  11   6  -9    5.62    5.70
  11  -6  -9    3.54    5.59
  11  -6  -8    0.76    4.90
  11   6  -8    2.22    4.18
  11   6  -8    0.73    4.78
  11   6  -7   39.77    5.42
  11  -6  -7   40.13    5.50
  11   6  -6   20.48    4.66
  11  -6  -6   23.99    5.18
  11   6  -5    1.03    4.27
  11  -6  -5    1.41    4.48
  11  -6  -4    7.68    4.38
  11   6  -4   15.12    4.63
  11   6  -3    9.12    3.58
  11   6  -3    2.52    4.61
  11  -6  -3   -0.36    4.62
  11   6  -2  160.73    7.99
  11  -6  -2  163.33    8.08
  11   6  -2  147.34    6.71
  11   6  -1   38.19    5.66
  11  -6  -1   34.26    5.60
  11   6  -1   30.09    4.62
  11   6   0    5.92    4.16
  11   6   0    3.49    5.15
  11  -6   0    2.69    4.96
  11   6   0    3.41    4.59
  11   6   1   84.48    7.16
  11   6   1   80.90    6.10
  11  -6   1   76.18    7.07
  11   7  -8  162.21    7.65
  11   7  -7    9.51    4.82
  11   7  -7   14.01    4.82
  11  -7  -7   15.31    5.14
  11   7  -6   34.49    5.17
  11  -7  -6   24.20    5.11
  11   7  -5  101.95    6.47
  11  -7  -5   78.50    6.26
  11   7  -4    2.60    4.41
  11  -7  -4    3.65    4.68
  11   7  -3   14.78    4.18
  11   7  -3   10.48    4.60
  11  -7  -3    1.33    4.46
  11   7  -2  100.24    6.06
  11   7  -2  112.30    7.19
  11  -7  -2  102.54    7.04
  11   7  -1    2.85    4.86
  11  -7  -1    0.71    4.84
  11   7  -1    4.17    4.28
  11   7   0   49.74    6.16
  11  -7   0   44.14    6.10
  11   7   0   48.51    5.56
  11   8  -8    6.86    4.96
  11   8  -7   41.74    5.53
  11   8  -6    9.08    5.06
  11   8  -2  211.13    8.40
  11   8  -1   53.02    5.74
  11   9  -6    9.56    5.55
  11   9  -2   53.67    5.56
  12   0 -10   -7.18    6.32
  12   0  -9   -7.55    5.86
  12   0  -9    9.50    5.62
  12   0  -8  380.00   13.07
  12   0  -7    0.87    4.60
  12   0  -6    6.95    5.12
  12   0  -5    2.59    4.64
  12   0  -4    0.45    4.71
  12   0  -3   -1.38    4.80
  12   0  -2   22.96    5.76
  12   0  -1    2.43    5.33
  12   0   0  125.15    8.87
  12   1 -10    3.83    6.19
  12   1  -9    8.99    6.00
  12   1  -9    3.14    5.04
  12   1  -8  257.43   10.73
  12   1  -7   10.45    5.24
  12   1  -6  263.74   10.52
  12   1  -5   21.17    5.30
  12   1  -4   25.32    5.36
  12   1  -3  534.10   16.05
  12   1  -2    0.95    5.08
  12   1  -1   29.25    6.22
  12   1  -1   42.12    4.67
  12   1   0  100.54    8.44
  12  -1   0   93.10    7.92
  12   1   0  101.92    6.26
  12   2 -10   34.21    6.85
  12  -2 -10   33.45    6.91
  12   2  -9   63.95    7.33
  12  -2  -9   73.09    7.66
  12   2  -9   70.96    6.83
  12  -2  -9   61.51    6.88
  12   2  -8    9.08    5.21
  12  -2  -8    2.64    4.88
  12  -2  -7    9.15    4.92
  12   2  -7   10.78    5.07
  12   2  -6   19.72    5.08
  12  -2  -6   19.29    5.26
  12   2  -5   90.88    6.88
  12  -2  -5   81.56    6.73
  12   2  -4  119.47    7.63
  12  -2  -4  106.89    7.36
  12   2  -3   39.27    6.12
  12  -2  -3   37.68    5.96
  12   2  -2  208.35    9.92
  12  -2  -2  204.81    9.89
  12   2  -1    3.83    5.33
  12  -2  -1    8.45    5.53
  12   2  -1    0.26    3.95
  12   2   0  173.57    9.63
  12  -2   0  151.65    9.20
  12   2   0  157.20    7.56
  12  -3 -10   12.49    6.38
  12   3  -9  545.51   16.24
  12  -3  -9  561.02   16.46
  12   3  -9  533.18   16.46
  12  -3  -9  529.05   16.55
  12   3  -8    2.96    5.07
  12  -3  -8    0.43    5.00
  12   3  -7    6.32    5.03
  12  -3  -7    4.71    5.12
  12   3  -6   18.57    5.24
  12  -3  -6   25.83    5.45
  12   3  -5   65.22    6.37
  12  -3  -5   59.88    6.23
  12   3  -4   -0.44    4.91
  12  -3  -4    2.98    4.78
  12   3  -3  155.17    8.86
  12  -3  -3  148.49    8.59
  12   3  -2    3.21    5.27
  12  -3  -2   18.04    5.80
  12   3  -1   96.98    5.91
  12   3  -1   83.74    7.41
  12  -3  -1   81.92    7.27
  12   3   0   15.78    6.11
  12  -3   0   11.32    5.98
  12   3   0    9.16    4.59
  12  -4  -9   64.23    6.96
  12   4  -9   60.04    6.70
  12   4  -8   70.65    6.80
  12  -4  -8   54.33    6.40
  12   4  -7    1.23    4.98
  12  -4  -7   -1.68    4.90
  12   4  -6    3.73    4.96
  12  -4  -6    5.84    5.11
  12   4  -5  273.24   10.78
  12  -4  -5  267.51   10.49
  12   4  -4   43.93    6.09
  12  -4  -4   41.83    5.96
  12   4  -3   66.08    6.71
  12  -4  -3   68.58    6.74
  12   4  -2   83.72    7.22
  12  -4  -2   76.27    7.03
  12   4  -1    9.82    5.77
  12  -4  -1    6.67    5.69
  12   4  -1   12.50    4.34
  12   4   0   26.25    5.12
  12   5  -8   49.00    6.43
  12  -5  -8   52.08    6.45
  12   5  -7    1.99    5.03
  12  -5  -7    3.25    5.11
  12   5  -6   97.16    7.22
  12  -5  -6  101.28    7.30
  12   5  -5   20.95    5.33
  12  -5  -5   19.03    5.49
  12   5  -4   35.75    5.63
  12  -5  -4   22.07    5.50
  12   5  -3  525.98   15.45
  12  -5  -3  474.57   14.84
  12   5  -2   -5.06    5.39
  12  -5  -2    3.74    5.46
  12   5  -1   34.61    6.06
  12  -5  -1   35.98    6.11
  12   5  -1   37.71    5.18
  12   6  -8  273.74   10.70
  12  -6  -8  258.74   10.66
  12   6  -7    6.00    4.99
  12  -6  -7    7.74    5.29
  12   6  -6    3.37    4.81
  12  -6  -6    7.68    5.25
  12   6  -5   19.85    5.33
  12  -6  -5   36.21    6.06
  12   6  -4   11.68    4.99
  12  -6  -4   13.62    5.26
  12   6  -3    9.22    5.20
  12  -6  -3    5.69    5.02
  12   6  -2    5.97    5.04
  12  -6  -2    9.25    5.45
  12   6  -1   10.55    4.65
  12  -7  -8  126.12    8.14
  12  -7  -7   18.18    5.49
  12   7  -6  288.65   10.80
  12  -7  -6  308.15   11.18
  12   7  -5   14.07    5.15
  12  -7  -5   10.05    5.21
  12   7  -4   -6.69    5.31
  12  -7  -4   -7.13    5.27
  12   7  -3  105.28    7.02
  12  -7  -3  100.15    7.16
  12  -7  -2   19.48    5.45
  13   0  -8  185.17    9.87
  13   0  -7   -7.03    5.77
  13   0  -6   55.06    6.80
  13   0  -5   -2.82    5.20
  13   0  -4   22.59    6.02
  13   0  -3   -4.96    6.00
  13   1  -8    5.18    5.68
  13   1  -7   16.94    5.66
  13   1  -6   50.72    6.71
  13   1  -5    4.69    5.38
  13   1  -4  287.67   11.84
  13   1  -3   -7.93    5.97
  13  -1  -3    1.47    5.61
  13   2  -8    6.47    5.61
  13  -2  -8   21.94    5.94
  13   2  -7   78.70    7.36
  13  -2  -7   87.50    7.38
  13   2  -6   -9.78    5.62
  13  -2  -6   -8.77    5.38
  13   2  -5   56.94    6.76
  13  -2  -5   84.33    7.22
  13   2  -4   15.17    5.87
  13  -2  -4    4.20    5.35
  13   2  -3   17.12    6.34
  13  -2  -3   16.26    6.04
  13  -3  -8   14.17    5.93
  13   3  -7  694.03   19.13
  13  -3  -7  663.90   18.85
  13   3  -6    2.76    5.64
  13  -3  -6   -5.00    5.75
  13   3  -5    7.86    5.74
  13  -3  -5    9.46    5.41
  13   3  -4   22.59    5.97
  13  -3  -4   15.70    5.48
  13   3  -3   13.54    6.56
  13  -3  -3   21.78    6.31
  13   4  -7   46.26    6.66
  13  -4  -7   28.31    6.33
  13   4  -6   92.54    7.79
  13  -4  -6  103.81    7.89
  13   4  -5   35.59    6.41
  13  -4  -5   39.75    6.38
  13   4  -4   -0.44    5.56
  13  -4  -4   -0.44    5.47
  13  -5  -6   15.58    5.78
  13  -5  -5    1.68    5.53
   0   0   0    0.00    0.00


TITL LCSO37c_final2 in P2(1)/c
REM P2(1)/c (#14 in standard setting)
CELL 0.71073   8.078692   9.235555   7.777910  90.0000 115.7874  90.0000
ZERR    2.00   0.000409   0.000321   0.000390   0.0000   0.0063   0.0000
LATT  1
SYMM -x, y+1/2,-z+1/2
SFAC Li O Co Se
UNIT 4.00 24.00 6.00 8.00
REM  CrysAlisPro recorded range (K): Min=296.3; max=296.8; aver:296.5
TEMP 23
SIZE 0.02 0.03 0.05
TREF
HKLF 4
END
_computing_structure_solution     'SHELXT 2018/2 (Sheldrick, 2018)'
;
_shelx_hkl_checksum                61037
_olex2_submission_special_instructions  'No special instructions were received'
_oxdiff_exptl_absorpt_empirical_details
;
Empirical correction (ABSPACK) includes:
- Absorption correction using spherical harmonics
- Frame scaling
;
_oxdiff_exptl_absorpt_empirical_full_max  1.254
_oxdiff_exptl_absorpt_empirical_full_min  0.864
