data_l6cso2a_try1_finalized
_audit_creation_date               2024-01-04
_audit_creation_method
;
Olex2 1.5
(compiled 2023.02.24 svn.rf166f9f3 for OlexSys, GUI svn.r6725)
;
_shelx_SHELXL_version_number       '2018/3'
_audit_contact_author_address      ?
_audit_contact_author_email        ?
_audit_contact_author_name         ''
_audit_contact_author_phone        ?
_publ_contact_author_id_orcid      ?
_publ_section_references
;
Dolomanov, O.V., Bourhis, L.J., Gildea, R.J, Howard, J.A.K. & Puschmann, H.
 (2009), J. Appl. Cryst. 42, 339-341.

Sheldrick, G.M. (2015). Acta Cryst. A71, 3-8.

Sheldrick, G.M. (2015). Acta Cryst. C71, 3-8.
;
_chemical_name_common              ?
_chemical_name_systematic          ?
_chemical_formula_moiety           'O3 Se1, Co1 O9 Se3, 6(Li)'
_chemical_formula_sum              'Co Li6 O12 Se4'
_chemical_formula_weight           608.41
_chemical_melting_point            ?
_chemical_oxdiff_formula           'Li6 Co Se4 O12'
loop_
  _atom_type_symbol
  _atom_type_description
  _atom_type_scat_dispersion_real
  _atom_type_scat_dispersion_imag
  _atom_type_scat_source
 'Co' 'Co' 0.3494 0.9721 'International Tables Vol C Tables 4.2.6.8 and 6.1.1.4'
 'Li' 'Li' -0.0003 0.0001
 'International Tables Vol C Tables 4.2.6.8 and 6.1.1.4'
 'O' 'O' 0.0106 0.0060 'International Tables Vol C Tables 4.2.6.8 and 6.1.1.4'
 'Se' 'Se' -0.0929 2.2259
 'International Tables Vol C Tables 4.2.6.8 and 6.1.1.4'

_shelx_space_group_comment
;
The symmetry employed for this shelxl refinement is uniquely defined
by the following loop, which should always be used as a source of
symmetry information in preference to the above space-group names.
They are only intended as comments.
;
_space_group_crystal_system        'trigonal'
_space_group_IT_number             148
_space_group_name_H-M_alt          'R -3'
_space_group_name_Hall             '-R 3'
loop_
  _space_group_symop_operation_xyz
 'x, y, z'
 '-y, x-y, z'
 '-x+y, -x, z'
 'x+2/3, y+1/3, z+1/3'
 '-y+2/3, x-y+1/3, z+1/3'
 '-x+y+2/3, -x+1/3, z+1/3'
 'x+1/3, y+2/3, z+2/3'
 '-y+1/3, x-y+2/3, z+2/3'
 '-x+y+1/3, -x+2/3, z+2/3'
 '-x, -y, -z'
 'y, -x+y, -z'
 'x-y, x, -z'
 '-x+2/3, -y+1/3, -z+1/3'
 'y+2/3, -x+y+1/3, -z+1/3'
 'x-y+2/3, x+1/3, -z+1/3'
 '-x+1/3, -y+2/3, -z+2/3'
 'y+1/3, -x+y+2/3, -z+2/3'
 'x-y+1/3, x+2/3, -z+2/3'

_cell_length_a                     9.6477(2)
_cell_length_b                     9.6477(2)
_cell_length_c                     21.7524(5)
_cell_angle_alpha                  90
_cell_angle_beta                   90
_cell_angle_gamma                  120
_cell_volume                       1753.42(8)
_cell_formula_units_Z              6
_cell_measurement_reflns_used      8452
_cell_measurement_temperature      100.02(19)
_cell_measurement_theta_max        33.7960
_cell_measurement_theta_min        2.8040
_shelx_estimated_absorpt_T_max     0.767
_shelx_estimated_absorpt_T_min     0.401
_exptl_absorpt_coefficient_mu      13.980
_exptl_absorpt_correction_T_max    0.786
_exptl_absorpt_correction_T_min    0.536
_exptl_absorpt_correction_type     gaussian
_exptl_absorpt_process_details
;
CrysAlisPro 1.171.42.55a (Rigaku Oxford Diffraction, 2022)
Numerical absorption correction based on gaussian integration over
a multifaceted crystal model
Empirical absorption correction using spherical harmonics,
implemented in SCALE3 ABSPACK scaling algorithm.
;
_exptl_absorpt_special_details     ?
_exptl_crystal_colour              violet
_exptl_crystal_colour_primary      violet
_exptl_crystal_density_diffrn      3.457
_exptl_crystal_density_meas        ?
_exptl_crystal_density_method      ?
_exptl_crystal_description         hexagonal
_exptl_crystal_F_000               1662
loop_
  _exptl_crystal_face_index_h
  _exptl_crystal_face_index_k
  _exptl_crystal_face_index_l
  _exptl_crystal_face_perp_dist
 12 -11 -4 0.0213
 7 7 -7 0.0140
 -11 0 8 0.0310
 -4 -9 6 0.0149
 12 -10 10 0.0219
 1 -3 -30 0.0105
 -12 12 3 0.0583
 0 2 -1 0.0281
 1 2 30 0.0093
 -6 3 -27 0.0222

_exptl_crystal_size_max            0.08
_exptl_crystal_size_mid            0.04
_exptl_crystal_size_min            0.02
loop_
  _exptl_oxdiff_crystal_face_indexfrac_h
  _exptl_oxdiff_crystal_face_indexfrac_k
  _exptl_oxdiff_crystal_face_indexfrac_l
  _exptl_oxdiff_crystal_face_x
  _exptl_oxdiff_crystal_face_y
  _exptl_oxdiff_crystal_face_z
 12.3173 -10.9479 -3.7421 0.0033 0.0085 1.0000
 6.6954 6.5406 -7.0575 0.2319 0.9649 0.1233
 -11.4397 0.0413 7.5477 -0.1896 -0.7863 -0.5880
 -3.5451 -9.3539 6.1057 -0.2314 -0.9637 0.1329
 12.1388 -9.6216 10.3116 -0.4437 0.1055 0.8900
 0.5324 -3.2167 -29.6617 0.9403 -0.2262 0.2544
 -11.8674 11.5656 3.1210 0.0181 0.0700 -0.9974
 -0.0016 2.0010 -0.9980 0.0431 0.1536 -0.0667
 1.3298 1.6159 29.9348 -0.9666 0.2321 -0.1084
 -6.2313 2.9008 -27.2567 0.9277 -0.2225 -0.2997

_exptl_transmission_factor_max     ?
_exptl_transmission_factor_min     ?
_diffrn_reflns_av_R_equivalents    0.0258
_diffrn_reflns_av_unetI/netI       0.0161
_diffrn_reflns_Laue_measured_fraction_full  1.000
_diffrn_reflns_Laue_measured_fraction_max  0.922
_diffrn_reflns_limit_h_max         13
_diffrn_reflns_limit_h_min         -14
_diffrn_reflns_limit_k_max         14
_diffrn_reflns_limit_k_min         -13
_diffrn_reflns_limit_l_max         30
_diffrn_reflns_limit_l_min         -32
_diffrn_reflns_number              12911
_diffrn_reflns_point_group_measured_fraction_full  1.000
_diffrn_reflns_point_group_measured_fraction_max  0.922
_diffrn_reflns_theta_full          25.242
_diffrn_reflns_theta_max           33.742
_diffrn_reflns_theta_min           2.611
_diffrn_ambient_environment        N~2~
_diffrn_ambient_temperature        100.02(19)
_diffrn_detector                   'Hybrid Pixel Array Detector'
_diffrn_detector_area_resol_mean   10.0000
_diffrn_detector_type              HyPix
_diffrn_measured_fraction_theta_full  1.000
_diffrn_measured_fraction_theta_max  0.922
_diffrn_measurement_details
;
List of Runs (angles in degrees, time in seconds):

  # Type    Start    End  Width  t~exp~   \w     \q     \k     \f   Frames
--------------------------------------------------------------------------
  1  \w    -41.00  15.00   0.50   10.00    --  -12.68 -89.00  28.00  112
  2  \w    -87.00   3.00   0.50   10.00    --  -12.68 -11.00 -50.00  180
  3  \w     11.00  58.00   0.50   10.00    --   13.93-122.00  47.00   94
  4  \w     29.00  80.00   0.50   10.00    --   13.93-155.00 -20.00  102
  5  \w     -1.00  86.00   0.50   10.00    --   13.93  57.00-120.00  174
  6  \w     -1.00  86.00   0.50   10.00    --   13.93  57.00 -60.00  174
  7  \w    -85.00 -39.00   0.50   10.00    --  -12.68 178.00  30.00   92
  8  \w    -85.00 -53.00   0.50   10.00    --  -12.68 178.00   0.00   64
  9  \w      2.00  87.00   0.50   10.00    --   13.93  37.00 150.00  170
;
_diffrn_measurement_device         'four-circle diffractometer'
_diffrn_measurement_device_type   
 'XtaLAB Synergy, Single source at offset/far, HyPix'
_diffrn_measurement_method         '\w scans'
_diffrn_orient_matrix_type        
 'CrysAlisPro convention (1999,Acta A55,543-557)'
_diffrn_orient_matrix_UB_11        -0.0047638000
_diffrn_orient_matrix_UB_12        0.0054083000
_diffrn_orient_matrix_UB_13        -0.0323716000
_diffrn_orient_matrix_UB_21        0.0693526000
_diffrn_orient_matrix_UB_22        0.0770808000
_diffrn_orient_matrix_UB_23        0.0005111000
_diffrn_orient_matrix_UB_31        0.0487082000
_diffrn_orient_matrix_UB_32        -0.0352091000
_diffrn_orient_matrix_UB_33        -0.0038857000
_diffrn_radiation_monochromator    mirror
_diffrn_radiation_probe            x-ray
_diffrn_radiation_type             'Mo K\a'
_diffrn_radiation_wavelength       0.71073
_diffrn_source                     'micro-focus sealed X-ray tube'
_diffrn_source_type                'PhotonJet (Mo) X-ray Source'
_reflns_Friedel_coverage           0.000
_reflns_Friedel_fraction_full      .
_reflns_Friedel_fraction_max       .
_reflns_number_gt                  1320
_reflns_number_total               1444
_reflns_special_details
;
 Reflections were merged by SHELXL according to the crystal
 class for the calculation of statistics and refinement.
 
 _reflns_Friedel_fraction is defined as the number of unique
 Friedel pairs measured divided by the number that would be
 possible theoretically, ignoring centric projections and
 systematic absences.
;
_reflns_threshold_expression       'I > 2\s(I)'
_computing_cell_refinement         'CrysAlisPro 1.171.42.55a (Rigaku OD, 2022)'
_computing_data_collection         'CrysAlisPro 1.171.42.55a (Rigaku OD, 2022)'
_computing_data_reduction          'CrysAlisPro 1.171.42.55a (Rigaku OD, 2022)'
_computing_molecular_graphics      'Olex2 1.5 (Dolomanov et al., 2009)'
_computing_publication_material    'Olex2 1.5 (Dolomanov et al., 2009)'
_computing_structure_refinement    'SHELXL 2018/3 (Sheldrick, 2015)'
_computing_structure_solution      'SHELXT 2018/2 (Sheldrick, 2018)'
_refine_diff_density_max           0.475
_refine_diff_density_min           -0.771
_refine_diff_density_rms           0.101
_refine_ls_extinction_coef         0.00012(3)
_refine_ls_extinction_expression  
 'Fc^*^=kFc[1+0.001xFc^2^\l^3^/sin(2\q)]^-1/4^'
_refine_ls_extinction_method       'SHELXL-2018/3 (Sheldrick 2018)'
_refine_ls_goodness_of_fit_ref     1.085
_refine_ls_hydrogen_treatment      undef
_refine_ls_matrix_type             full
_refine_ls_number_parameters       72
_refine_ls_number_reflns           1444
_refine_ls_number_restraints       0
_refine_ls_R_factor_all            0.0158
_refine_ls_R_factor_gt             0.0125
_refine_ls_restrained_S_all        1.085
_refine_ls_shift/su_max            0.003
_refine_ls_shift/su_mean           0.000
_refine_ls_structure_factor_coef   Fsqd
_refine_ls_weighting_details      
 'w=1/[\s^2^(Fo^2^)+(0.0136P)^2^+1.5299P] where P=(Fo^2^+2Fc^2^)/3'
_refine_ls_weighting_scheme        calc
_refine_ls_wR_factor_gt            0.0290
_refine_ls_wR_factor_ref           0.0295
_refine_special_details            ?
_olex2_refinement_description
;
;
_atom_sites_solution_hydrogens     .
_atom_sites_solution_primary       dual
_atom_sites_solution_secondary     ?
loop_
  _atom_site_label
  _atom_site_type_symbol
  _atom_site_fract_x
  _atom_site_fract_y
  _atom_site_fract_z
  _atom_site_U_iso_or_equiv
  _atom_site_adp_type
  _atom_site_occupancy
  _atom_site_site_symmetry_order
  _atom_site_calc_flag
  _atom_site_refinement_flags_posn
  _atom_site_refinement_flags_adp
  _atom_site_refinement_flags_occupancy
  _atom_site_disorder_assembly
  _atom_site_disorder_group
 Se2 Se 0.666667 0.333333 0.60823(2) 0.00378(5) Uani 1 3 d S T P . .
 Se1 Se 0.61787(2) 0.82201(2) 0.55220(2) 0.00396(4) Uani 1 1 d . . . . .
 Co2 Co 1.000000 1.000000 0.500000 0.00370(8) Uani 1 6 d S T P . .
 Co1 Co 0.333333 0.666667 0.666667 0.00483(8) Uani 1 6 d S T P . .
 O1 O 0.54208(11) 0.71408(11) 0.61897(4) 0.00588(16) Uani 1 1 d . . . . .
 O4 O 0.69855(11) 0.50525(10) 0.64244(4) 0.00600(17) Uani 1 1 d . . . . .
 O2 O 0.64972(11) 1.00167(11) 0.57536(4) 0.00674(17) Uani 1 1 d . . . . .
 O3 O 0.80279(10) 0.84223(11) 0.55478(4) 0.00625(16) Uani 1 1 d . . . . .
 Li2 Li 0.8663(3) 0.7276(3) 0.60962(11) 0.0090(4) Uani 1 1 d . . . . .
 Li1 Li 0.4960(3) 0.5005(3) 0.63663(11) 0.0088(4) Uani 1 1 d . . . . .

loop_
  _atom_site_aniso_label
  _atom_site_aniso_U_11
  _atom_site_aniso_U_22
  _atom_site_aniso_U_33
  _atom_site_aniso_U_23
  _atom_site_aniso_U_13
  _atom_site_aniso_U_12
 Se2 0.00345(6) 0.00345(6) 0.00443(10) 0.000 0.000 0.00172(3)
 Se1 0.00354(6) 0.00421(6) 0.00427(6) -0.00003(4) -0.00001(4) 0.00204(4)
 Co2 0.00345(11) 0.00345(11) 0.00419(18) 0.000 0.000 0.00172(5)
 Co1 0.00427(11) 0.00427(11) 0.00595(19) 0.000 0.000 0.00214(6)
 O1 0.0063(4) 0.0057(4) 0.0057(4) 0.0021(3) 0.0025(3) 0.0030(3)
 O4 0.0058(4) 0.0041(4) 0.0083(4) -0.0014(3) -0.0008(3) 0.0026(3)
 O2 0.0068(4) 0.0045(4) 0.0092(5) -0.0007(3) 0.0007(3) 0.0030(3)
 O3 0.0039(4) 0.0080(4) 0.0079(4) 0.0017(3) 0.0013(3) 0.0037(3)
 Li2 0.0086(10) 0.0100(10) 0.0098(11) -0.0005(8) -0.0012(8) 0.0058(9)
 Li1 0.0078(10) 0.0088(10) 0.0105(12) -0.0001(8) 0.0006(8) 0.0048(9)

_geom_special_details
;
 All esds (except the esd in the dihedral angle between two l.s. planes)
 are estimated using the full covariance matrix.  The cell esds are taken
 into account individually in the estimation of esds in distances, angles
 and torsion angles; correlations between esds in cell parameters are only
 used when they are defined by crystal symmetry.  An approximate (isotropic)
 treatment of cell esds is used for estimating esds involving l.s. planes.
;
loop_
  _geom_bond_atom_site_label_1
  _geom_bond_atom_site_label_2
  _geom_bond_distance
  _geom_bond_site_symmetry_2
  _geom_bond_publ_flag
 Se2 O4 1.6998(9) 3_665 ?
 Se2 O4 1.6998(9) . ?
 Se2 O4 1.6998(9) 2_655 ?
 Se1 O1 1.7225(9) . ?
 Se1 O2 1.6793(9) . ?
 Se1 O3 1.6959(9) . ?
 Co2 O3 2.1120(9) . ?
 Co2 O3 2.1121(9) 12_656 ?
 Co2 O3 2.1120(9) 11_566 ?
 Co2 O3 2.1120(9) 10_776 ?
 Co2 O3 2.1121(9) 3_675 ?
 Co2 O3 2.1120(9) 2_765 ?
 Co1 O1 2.1025(9) 13_566 ?
 Co1 O1 2.1025(9) 2_665 ?
 Co1 O1 2.1025(9) 3_565 ?
 Co1 O1 2.1025(9) . ?
 Co1 O1 2.1025(9) 14_456 ?
 Co1 O1 2.1025(9) 15_556 ?

loop_
  _geom_angle_atom_site_label_1
  _geom_angle_atom_site_label_2
  _geom_angle_atom_site_label_3
  _geom_angle
  _geom_angle_site_symmetry_1
  _geom_angle_site_symmetry_3
  _geom_angle_publ_flag
 O4 Se2 O4 102.27(4) 3_665 2_655 ?
 O4 Se2 O4 102.27(4) 3_665 . ?
 O4 Se2 O4 102.27(4) 2_655 . ?
 O2 Se1 O1 100.04(4) . . ?
 O2 Se1 O3 103.43(5) . . ?
 O3 Se1 O1 98.38(4) . . ?
 O3 Co2 O3 180.0 11_566 2_765 ?
 O3 Co2 O3 88.71(3) 11_566 3_675 ?
 O3 Co2 O3 91.29(3) 10_776 12_656 ?
 O3 Co2 O3 91.29(3) 11_566 10_776 ?
 O3 Co2 O3 91.29(4) 2_765 3_675 ?
 O3 Co2 O3 88.71(4) 2_765 10_776 ?
 O3 Co2 O3 91.29(4) 11_566 12_656 ?
 O3 Co2 O3 88.71(3) 2_765 12_656 ?
 O3 Co2 O3 91.29(4) 2_765 . ?
 O3 Co2 O3 180.0 10_776 . ?
 O3 Co2 O3 91.29(3) . 3_675 ?
 O3 Co2 O3 88.71(4) 11_566 . ?
 O3 Co2 O3 180.00(3) 12_656 3_675 ?
 O3 Co2 O3 88.71(4) . 12_656 ?
 O3 Co2 O3 88.71(4) 10_776 3_675 ?
 O1 Co1 O1 97.74(3) 13_566 15_556 ?
 O1 Co1 O1 82.26(3) 15_556 . ?
 O1 Co1 O1 180.0 15_556 3_565 ?
 O1 Co1 O1 97.74(3) 15_556 14_456 ?
 O1 Co1 O1 82.26(3) 15_556 2_665 ?
 O1 Co1 O1 82.26(3) 13_566 3_565 ?
 O1 Co1 O1 82.26(3) 13_566 2_665 ?
 O1 Co1 O1 82.26(3) 14_456 3_565 ?
 O1 Co1 O1 97.74(3) 3_565 . ?
 O1 Co1 O1 180.00(5) 2_665 14_456 ?
 O1 Co1 O1 97.75(3) 2_665 3_565 ?
 O1 Co1 O1 82.26(3) 14_456 . ?
 O1 Co1 O1 180.0 13_566 . ?
 O1 Co1 O1 97.74(3) 13_566 14_456 ?
 O1 Co1 O1 97.74(3) 2_665 . ?
 Se1 O1 Co1 128.21(5) . . ?
 Se1 O3 Co2 125.52(5) . . ?

loop_
  _geom_torsion_atom_site_label_1
  _geom_torsion_atom_site_label_2
  _geom_torsion_atom_site_label_3
  _geom_torsion_atom_site_label_4
  _geom_torsion
  _geom_torsion_site_symmetry_1
  _geom_torsion_site_symmetry_2
  _geom_torsion_site_symmetry_3
  _geom_torsion_site_symmetry_4
  _geom_torsion_publ_flag
 O1 Se1 O3 Co2 -166.77(6) . . . . ?
 O2 Se1 O1 Co1 61.41(7) . . . . ?
 O2 Se1 O3 Co2 -64.28(7) . . . . ?
 O3 Se1 O1 Co1 166.75(6) . . . . ?

_shelx_res_file
;
TITL l6cso2a_try1_finalized_a.res in R-3
    l6cso2a_try1_finalized.res
    created by SHELXL-2018/3 at 14:59:45 on 05-Dec-2023
REM Old TITL L6CSO2a_try1_finalized in R-3
REM SHELXT solution in R-3: R1 0.014, Rweak 0.005, Alpha 0.023
REM <I/s> 0.000 for 0 systematic absences, Orientation as input
REM Formula found by SHELXT: Li6 O12 Co Se4
CELL 0.71073 9.6477 9.6477 21.7524 90 90 120
ZERR 6 0.0002 0.0002 0.0005 0 0 0
LATT 3
SYMM -Y,+X-Y,+Z
SYMM +Y-X,-X,+Z
SFAC Co Li O Se
UNIT 6 36 72 24

L.S. 4 0 0
PLAN  2
SIZE 0.02 0.04 0.08
TEMP -173
CONF
CONN 0 Li1
CONN 0 Li2
list 4
fmap 2 53
MORE -1
ACTA
REM <olex2.extras>
REM <HklSrc "%.\\L6CSO2a_try1_finalized.hkl">
REM </olex2.extras>

WGHT    0.013600    1.529900
EXTI    0.000118
FVAR       0.15506
SE2   4    0.666667    0.333333    0.608229    10.33333    0.00345    0.00345 =
         0.00443    0.00000    0.00000    0.00172
SE1   4    0.617871    0.822010    0.552199    11.00000    0.00354    0.00421 =
         0.00427   -0.00003   -0.00001    0.00204
CO2   1    1.000000    1.000000    0.500000    10.16667    0.00345    0.00345 =
         0.00419    0.00000    0.00000    0.00172
CO1   1    0.333333    0.666667    0.666667    10.16667    0.00427    0.00427 =
         0.00595    0.00000    0.00000    0.00214
O1    3    0.542081    0.714079    0.618971    11.00000    0.00625    0.00571 =
         0.00572    0.00206    0.00246    0.00303
O4    3    0.698547    0.505251    0.642442    11.00000    0.00583    0.00408 =
         0.00828   -0.00144   -0.00082    0.00262
O2    3    0.649716    1.001672    0.575358    11.00000    0.00683    0.00450 =
         0.00917   -0.00073    0.00068    0.00303
O3    3    0.802790    0.842226    0.554780    11.00000    0.00386    0.00797 =
         0.00787    0.00167    0.00129    0.00367
LI2   2    0.866302    0.727629    0.609623    11.00000    0.00861    0.01003 =
         0.00982   -0.00052   -0.00116    0.00579
LI1   2    0.496026    0.500499    0.636630    11.00000    0.00784    0.00881 =
         0.01046   -0.00010    0.00057    0.00480
HKLF 4




REM  l6cso2a_try1_finalized_a.res in R-3
REM wR2 = 0.0295, GooF = S = 1.085, Restrained GooF = 1.085 for all data
REM R1 = 0.0125 for 1320 Fo > 4sig(Fo) and 0.0158 for all 1444 data
REM 72 parameters refined using 0 restraints

END

WGHT      0.0136      1.5297

REM Highest difference peak  0.475,  deepest hole -0.771,  1-sigma level  0.101
Q1    1   0.6667  0.3333  0.5720  10.33333  0.05    0.47
Q2    1   0.7199  0.8321  0.5640  11.00000  0.05    0.45
;
_shelx_res_checksum                43409
_shelx_hkl_file
;
   0   0  -3   83.81    3.46
   0   0   3   77.46    3.38
   0   0   6 2193.41   51.61
   0   0  -6 2235.29   51.51
   0   0   9 2790.77   66.83
   0   0  -9 2866.19   66.61
   0   0  -9 2820.13   64.55
   0   0 -12 2573.34   62.98
   0   0 -12 2456.21   63.84
   0   0 -12 2551.19   60.51
   0   0  12 2589.80   63.62
   0   0 -12 2705.51   63.14
   0   0  12 2555.00   63.48
   0   0 -15  345.47   14.63
   0   0 -15  300.33   14.93
   0   0 -15  310.54   12.38
   0   0  15  333.45   14.95
   0   0 -15  335.56   14.44
   0   0  15  307.36   14.75
   0   0 -18 6363.75  145.67
   0   0  18 6161.77  147.36
   0   0 -18 6504.04  145.58
   0   0 -18 6306.14  142.41
   0   0  18 6088.53  146.33
   0   0 -18 6226.12  147.12
   0   0  21 1251.79   31.92
   0   0 -21 1266.09   35.22
   0   0  21 1180.33   39.64
   0   0  24   32.86    4.45
   0   0  24   27.92    8.82
   0   0 -24   29.84    6.30
   0   0 -27  244.36   13.32
   0   0  27  246.66    9.32
   0   0  27  251.11   17.88
   0   0 -30  775.04   26.07
   0   0  30  711.94   32.75
  -1   1 -29  254.32   15.04
   0  -1 -29  222.44   12.18
   1   0 -29  223.84   12.48
   0   1  29  211.09   17.83
  -1   0  29  213.24   17.81
   0   1  26  923.43   35.41
  -1   0  26  910.03   35.66
  -1   1 -26  892.78   30.10
   0  -1 -26  910.77   27.81
   1   0 -26  949.88   28.69
   0   1  26  903.87   26.19
   1  -1  26  875.93   24.17
   0   1  23  240.94   16.07
  -1   0  23  263.86   16.83
  -1   0  23  250.60    7.66
   1  -1  23  259.19   10.35
   1   0 -23  230.53   12.12
   0  -1 -23  279.67   12.56
  -1   1 -23  239.16   13.41
   1  -1  20   91.81    6.02
  -1   0  20   83.39    4.42
   0  -1 -20   79.07    9.37
   1   0 -20   78.90    8.79
   1   0 -20   91.08    7.35
  -1   0  20  102.81   10.12
   0  -1 -20   95.09    7.23
  -1   1 -20   87.25    8.28
   0   1  20  103.76   10.05
  -1   0  17    2.63    4.18
   0   1  17    5.24    4.33
  -1   1 -17    0.74    4.91
   0  -1 -17    0.46    3.07
  -1   1 -17    0.63    3.86
   0   1  17   -0.80    4.55
   1   0 -17    4.55    3.57
   1   0 -17   -3.11    4.66
   0  -1 -17   -4.27    5.08
   1   0 -17   -0.73    4.80
  -1   1 -17    2.21    4.33
   1  -1  17    0.38    2.66
   0   1  14   33.67    5.20
   1   0 -14   37.73    5.36
   0  -1 -14   31.39    5.46
   1   0 -14   30.10    3.92
  -1   1 -14   23.89    4.08
   0  -1 -14   33.65    3.89
  -1   1 -14   36.54    5.57
   1   0 -14   36.50    5.50
   0  -1 -14   29.56    5.36
  -1   0  14   33.19    5.27
   1  -1  14   32.00    3.60
   0   1  14   29.23    5.06
   1   0 -14   34.54    5.42
   1  -1  11  576.97   16.62
   1   0 -11  573.50   19.05
   0  -1 -11  604.98   20.14
  -1   0  11  607.56   14.02
   0  -1 -11  594.04   13.89
   0   1  11  584.43   19.46
   1   0 -11  586.17   17.12
   1   0 -11  548.34   18.82
   0  -1 -11  585.47   19.11
  -1   1 -11  606.48   19.29
  -1   0  11  585.55   19.62
   0   1  11  584.52   19.56
  -1   1 -11  618.42   18.66
   1  -1   8  315.39    9.88
   0  -1  -8  328.56    8.59
  -1   1  -8  324.52    8.50
   0   1   8  308.77   11.47
   0   1   8  326.03   11.75
   1   0  -8  291.15    9.74
   1   0  -8  308.97   11.28
   0  -1  -8  313.20   11.33
  -1   0   8  302.41   11.39
  -1   1  -8  327.69   11.52
  -1   1  -8  329.75    8.79
   1   0  -8  317.00   11.37
  -1   0   8  320.66    9.77
  -1   0   5 3893.22   85.10
   1   0  -5 3885.18   84.92
   0   1   5 3860.01   85.32
   0  -1  -5 3651.03   85.41
  -1   0   5 3857.31   83.69
   1  -1   5 3753.07   83.65
  -1   1  -5 3883.39   83.50
   0   1   5 3831.84   85.23
  -1   1  -5 3808.21   83.54
   0   1   5 3914.25   85.97
  -1   0   5 3795.44   85.15
  -1   1  -5 3767.78   85.08
   1   0  -5 3757.16   85.00
   0  -1  -5 3843.38   85.01
   0  -1  -2  665.14   16.07
   0   1   2  671.95   16.12
   1  -1   2  642.95   16.01
   1   0  -2  672.86   15.32
  -1   1  -2  645.37   15.97
   0   1   2  662.86   15.90
  -1   1  -2  666.88   15.78
   0  -1  -2  692.30   16.40
   0   1   2  690.80   16.53
  -1   0   2  671.81   15.90
  -1   1  -2  661.97   16.29
   1   0  -2  687.24   16.01
  -1   0   2  688.67   16.04
  -1   1  -2  671.31   15.73
   1   0  -2  668.37   15.85
   1   0   1    0.58    0.88
  -1   0  -1    1.97    0.90
  -1   1   1    3.43    0.59
   1  -1  -1   -0.29    0.81
  -1   1   1    0.99    0.89
  -1   1   1    2.75    0.68
  -1   1   1    1.28    0.71
   1  -1  -1   -0.22    0.69
   1   0   1    0.76    0.72
  -1   0  -1    1.01    0.68
   0   1  -1    1.39    0.82
   0  -1   1    0.49    0.75
  -1   0  -4  374.72   11.83
  -1   1   4  378.35   10.17
  -1   1   4  365.65   10.44
   1  -1  -4  354.43   10.31
   0   1  -4  363.47   10.53
   1   0   4  369.79   10.67
  -1   0  -4  365.08   10.81
   0  -1   4  362.21   10.60
  -1   1   4  373.84   10.68
   1   0   4  381.37   10.65
  -1   0  -4  369.13   10.53
   1  -1  -4  370.44   10.01
   0  -1   4  406.21   10.75
  -1   1   7 2951.24   66.01
   1   0   7 2984.99   69.19
   1   0   7 3005.38   69.42
  -1   0  -7 3063.77   69.73
   1  -1  -7 2942.47   68.54
  -1   0  -7 2833.95   70.69
  -1   1   7 3078.66   69.27
   1  -1  -7 2976.15   68.92
   1   0   7 3029.48   66.12
  -1   1   7 3143.44   65.65
   0   1  -7 2968.39   68.95
  -1   0  -7 3042.85   69.00
   0  -1   7 2960.84   69.19
  -1   1   7 2945.42   69.24
   0  -1   7 3019.39   65.36
   1  -1  -7 2930.70   65.95
   0  -1   7 3037.71   68.30
   1  -1 -10  274.75   11.24
   0   1 -10  270.38   11.21
   1  -1 -10  273.05   11.22
   1   0  10  275.10    7.37
   0  -1  10  276.83    7.24
   1   0  10  266.49   11.29
   0   1 -10  263.82   10.32
  -1   0 -10  249.98   10.81
   0  -1  10  275.64   11.41
   0   1 -10  264.89   11.04
  -1   1  10  268.52   11.31
   1   0  10  266.94   11.20
   0  -1  10  267.88    7.62
   1  -1 -10  262.13    8.56
   0  -1  10  269.04   10.09
   1   0  13 1206.75   34.54
   0   1 -13 1239.32   32.92
   1  -1 -13 1223.96   30.40
  -1   1  13 1205.27   34.85
  -1   0 -13 1222.79   34.07
   0  -1  13 1237.95   35.05
   0   1 -13 1219.56   34.06
   1   0  13 1178.46   34.62
   0  -1  13 1219.19   28.61
   1  -1 -13 1255.95   34.39
   0   1 -13 1178.91   33.81
   1  -1 -13 1213.66   34.23
  -1   0 -13 1194.88   36.05
  -1   0 -13 1190.42   32.18
  -1   1  16  727.65   25.35
   1   0  16  683.28   24.85
   0   1 -16  733.51   23.18
   1  -1 -16  706.43   20.76
  -1   1  16  740.93   25.65
   0   1 -16  718.98   24.63
   0  -1  16  741.69   25.68
  -1   0 -16  780.25   25.17
   1   0  16  762.00   25.81
   0   1 -16  732.38   24.41
  -1   0 -16  752.57   26.67
   1  -1 -16  770.88   25.25
  -1   0 -16  736.37   22.77
   0  -1  16  714.92   18.63
   1   0  19    0.98    4.72
   0  -1  19    7.82    5.33
  -1   1  19   16.43    5.85
  -1   0 -19    1.25    3.93
   0  -1  19    7.04    2.41
   1  -1 -19   15.99    5.79
  -1   0 -19    2.93    5.86
   1  -1 -19    6.38    3.52
   0   1 -19   10.56    4.92
  -1   1  22  177.58   13.83
   0  -1  22  180.91   14.13
   1   0  22  154.36   13.20
   0  -1  22  199.81    7.00
   1   0  22  196.47   10.04
   1  -1 -22  202.33   10.08
   0   1 -22  222.66   12.31
  -1   0 -22  224.65   12.03
   1   0  25  701.68   21.59
  -1   1  25  675.52   19.53
   0  -1  25  685.88   29.24
   1   0  25  684.95   29.20
  -1   1  25  696.85   29.48
   1  -1 -25  670.08   21.95
   0   1 -25  666.18   24.44
  -1   0 -25  728.92   24.74
   1   0  28   12.09    4.86
  -1   0 -28   19.70    7.25
   1  -1 -28    3.37    5.24
   0   1 -28    3.30    6.86
  -1   1  28   22.36    9.62
  -1   2 -30  303.24   17.34
   1   1  30  291.55   20.87
  -2   1  30  245.69   19.19
   1  -2  30  237.65   19.14
   1  -2  27  351.89   21.48
   1   1  27  373.77   22.50
  -2   1  27  371.31   21.85
  -1   2 -27  376.58   18.71
  -1  -1 -27  414.25   17.14
   2  -1 -27  354.59   14.42
   1   1  27  360.07   15.71
  -2   1  24    3.65    7.31
   1   1  24    7.53    7.73
  -2   1  24    8.96    2.67
  -1   2 -24    8.85    6.18
   2  -1 -24    7.66    4.38
  -1  -1 -24    8.91    5.61
   2  -1 -21   82.78    8.70
  -2   1  21   91.27   10.10
   1   1  21   93.75   10.18
   1  -2  21   84.93    5.13
   2  -1 -21   96.34    6.89
  -1   2 -21   97.05    9.00
  -1  -1 -21   91.58    7.78
  -1  -1 -18  308.57   16.84
   2  -1 -18  340.92   15.48
   1   1  18  360.96   17.41
   1  -2  18  359.90   16.78
   2  -1 -18  356.35   12.83
  -1   2 -18  347.80   15.80
  -2   1  18  355.01   17.21
   1  -2  18  364.73   11.62
  -1  -1 -18  360.20   14.26
   1  -2  15  227.41    8.44
  -2   1  15  232.25    6.58
   2  -1 -15  230.78   11.45
  -1  -1 -15  236.64   13.31
   2  -1 -15  237.68   12.25
  -1  -1 -15  242.54    6.57
   1   1  15  225.65   12.46
   1   1  15  222.99   12.30
   1  -2  15  257.88   12.83
   2  -1 -15  229.83    9.19
  -1  -1 -15  228.30   12.01
   2  -1 -15  250.50   12.44
  -2   1  15  233.66   12.61
  -1   2 -15  228.44   12.01
  -1   2 -15  228.54    7.21
   1   1  15  233.24    6.48
  -1   2 -15  236.86   11.78
   2  -1 -12  107.62    6.94
   2  -1 -12  125.98    7.87
   1   1  12  130.99    8.32
   1  -2  12  115.63    4.85
  -2   1  12  125.74    4.94
   1   1  12  110.39    7.69
   2  -1 -12  119.66    5.51
  -1  -1 -12  103.03    7.42
  -1   2 -12  112.48    7.69
  -2   1  12  130.26    8.19
   1  -2  12  115.60    5.30
  -1   2 -12  119.71    7.60
   1  -2   9  757.80   19.12
  -2   1   9  759.32   22.09
   2  -1  -9  749.11   18.83
   1   1   9  747.11   22.15
   2  -1  -9  770.75   20.65
   2  -1  -9  744.52   21.61
  -1  -1  -9  733.51   22.44
   1   1   9  747.16   22.01
   2  -1  -9  755.91   18.79
  -1   2  -9  740.93   21.63
  -1  -1  -9  754.49   21.76
  -2   1   9  745.00   22.07
   1  -2   9  775.15   19.39
  -2   1   9  744.34   19.40
  -2   1   9  751.37   18.53
   1  -2   6 1536.92   35.42
   2  -1  -6 1492.00   34.89
  -2   1   6 1537.53   36.31
  -1   2  -6 1517.94   34.31
   2  -1  -6 1475.24   34.02
  -1  -1  -6 1529.61   37.55
   1   1   6 1499.98   38.09
   1   1   6 1451.35   36.22
  -1  -1  -6 1537.18   36.24
   2  -1  -6 1437.12   35.82
   2  -1  -6 1473.60   33.75
  -2   1   6 1497.77   33.48
   1  -2   6 1501.77   36.67
  -1   2  -6 1349.74   36.66
  -1  -1  -6 1424.77   36.52
   1   1   6 1480.08   36.29
  -2   1   6 1518.13   36.16
  -1   2  -6 1501.84   35.87
   2  -1  -3  238.90    7.82
  -1   2  -3  219.02    7.65
  -1  -1  -3  218.94    7.45
   1   1   3  234.18    8.23
  -1  -1  -3  228.76    7.92
  -2   1   3  214.03    7.27
   2  -1  -3  223.71    7.39
  -2   1   3  225.20    6.97
   1  -2   3  227.21    7.90
  -1   2  -3  240.65    8.21
  -1  -1  -3  224.30    7.60
   1   1   3  228.63    7.50
   2  -1  -3  213.10    7.34
  -2   1   3  232.91    7.53
  -1  -1   0  449.47   11.78
  -1   2   0  443.84   12.00
  -1  -1   0  471.82   12.63
  -1   2   0  462.97   12.06
  -2   1   0  458.65   11.74
   1   1   0  452.49   12.00
  -1  -1   0  454.97   12.13
   1  -2   0  445.27   12.95
  -1   2   0  448.17   11.70
  -2   1   0  442.79   12.13
  -1   2   0  441.12   12.77
   2  -1   0  482.15   13.06
  -2   1   0  449.35   12.72
  -2   1   0  475.67   12.40
   2  -1   0  451.06   12.35
  -1   2   3 1621.62   36.29
   1  -2  -3 1612.34   37.72
  -1   2   3 1603.39   36.41
  -2   1  -3 1615.35   36.34
  -1   2   3 1564.47   36.96
   1   1  -3 1586.21   36.13
  -1  -1   3 1591.80   37.26
   1  -2  -3 1585.48   35.49
  -1   2   3 1592.38   35.54
   2  -1   3 1595.84   37.65
  -2   1  -3 1583.84   37.44
  -1   2   3 1580.11   36.30
  -2   1  -3 1600.85   36.94
  -2   1  -3 1626.61   37.47
   1  -2  -6   56.15    3.49
  -1   2   6   58.26    3.79
  -1   2   6   61.76    4.22
  -2   1  -6   50.12    3.84
  -1  -1   6   60.74    3.81
   1   1  -6   56.27    3.80
  -1   2   6   61.22    3.90
   2  -1   6   60.93    3.69
  -2   1  -6   61.98    3.70
  -1  -1   6   51.15    3.93
  -2   1  -6   47.84    3.63
  -1   2   6   63.79    4.09
  -1   2   9 3306.86   76.06
  -2   1  -9 3253.98   76.09
  -1   2   9 3132.03   75.48
   1  -2  -9 3241.49   75.14
  -1  -1   9 3254.44   73.86
   1   1  -9 3185.12   74.53
   2  -1   9 3301.84   74.78
   1   1  -9 3242.98   75.01
   1  -2  -9 3236.57   72.38
  -2   1  -9 3210.05   72.30
  -1   2   9 3219.57   75.43
  -1  -1   9 3275.99   75.75
  -2   1  -9 3180.29   75.07
   2  -1  12  583.60   18.28
   1  -2 -12  575.09   15.19
  -2   1 -12  572.26   14.95
   1   1 -12  534.13   18.78
   1  -2 -12  597.83   19.63
   1   1 -12  548.95   19.15
  -1   2  12  543.48   19.33
   1   1 -12  589.32   18.54
  -2   1 -12  592.38   19.46
  -1  -1  12  621.52   20.26
  -1   2  12  591.54   19.84
   1  -2 -12  585.49   15.45
  -1  -1  12  585.18   17.71
   1  -2 -15  437.47   17.83
  -2   1 -15  452.08   11.34
  -1  -1  15  458.32   11.48
  -1   2  15  476.55   18.44
   1   1 -15  488.95   17.02
   1  -2 -15  470.59   17.97
  -2   1 -15  465.26   17.86
   1   1 -15  452.09   17.75
  -1  -1  15  479.18   19.06
  -1   2  15  485.06   18.97
   2  -1  15  457.47   16.11
   1  -2 -15  466.88   13.99
  -2   1 -15  450.25   17.15
   1   1 -15  483.18   18.03
   1  -2 -15  505.44   18.59
   1  -2 -18  264.14    9.98
   1   1 -18  253.42   12.41
  -1  -1  18  238.21   14.30
  -1   2  18  282.73   15.07
   2  -1  18  241.09   11.14
  -2   1 -18  227.65   12.31
  -2   1 -18  232.19   14.86
   1  -2 -18  249.82   13.61
   1   1 -21   69.68    8.94
   1   1 -21   78.86    8.04
   2  -1  21   71.54    6.43
  -1   2  21   52.73    8.58
  -1  -1  21   67.34    9.22
  -2   1 -21   58.97    7.39
   1  -2 -21   58.36    5.45
  -1  -1  24    5.01    8.03
  -1   2  24    1.22    7.15
   2  -1  24    9.81    4.92
   1  -2 -24   11.10    4.45
   1   1 -24    4.55    5.85
  -2   1 -24   20.66    6.91
  -2   1 -27  218.52   14.14
   1   1 -27  226.06   13.33
   1  -2 -27  205.64   10.18
  -1  -1  27  224.94   17.71
  -1   2  27  186.85   16.27
   2  -1  27  237.40   17.49
   2  -1  27  226.46   11.10
  -1  -1  30  174.38   16.70
   1   1 -30  141.62   11.52
  -2   1 -30  133.52   12.08
  -1   2  30  141.94   15.89
   2  -1  30  103.01   14.78
  -2   2 -31    5.11    8.53
   0   2  28  743.60   24.11
   0   2  28  735.53   32.29
   2  -2  28  753.65   32.02
   0  -2 -28  694.83   22.76
   2   0 -28  712.83   24.10
  -2   2 -28  712.75   27.72
  -2   0  28  789.16   32.96
   2  -2  25  723.44   21.37
  -2   0  25  744.20   30.81
   2  -2  25  660.73   29.25
   0   2  25  746.32   30.83
   2   0 -25  706.11   23.92
  -2   2 -25  753.16   27.40
   0  -2 -25  735.41   22.91
   2   0 -22 1746.59   45.90
   2   0 -22 1751.79   48.90
  -2   0  22 1761.80   52.82
   0  -2 -22 1739.87   44.57
  -2   2 -22 1759.05   49.26
   0   2  22 1733.66   52.55
   2  -2  22 1693.78   51.77
   2  -2  22 1740.29   43.81
   2   0 -19  871.17   26.26
  -2   0  19  875.76   31.06
   2  -2  19  868.17   30.52
   2   0 -19  887.89   28.65
   0  -2 -19  822.97   29.93
  -2   2 -19  860.47   28.75
   0  -2 -19  897.93   25.25
   2  -2  19  881.66   25.02
   0   2  19  898.65   31.26
   2  -2  16 2664.33   62.67
   2   0 -16 2563.46   66.24
   0  -2 -16 2650.65   66.47
   2  -2  16 2730.63   67.52
   0   2  16 2596.33   67.11
   0  -2 -16 2684.03   58.19
  -2   0  16 2615.61   58.21
   2   0 -16 2577.11   63.43
  -2   0  16 2617.52   68.20
   2  -2  16 2638.79   67.77
  -2   2 -16 2688.62   66.70
   2   0 -16 2638.10   65.80
   0  -2 -16 2556.76   67.62
  -2   2 -16 2639.87   66.51
   0   2  16 2546.62   67.76
   2  -2  13  149.77    7.33
   0  -2 -13  127.70    8.47
   2   0 -13  164.79    9.23
   0  -2 -13  144.85    9.59
   2  -2  13  133.88    8.86
   0   2  13  152.60    9.36
   0  -2 -13  149.07    5.86
   0   2  13  152.95    9.48
   2   0 -13  162.27    7.78
  -2   2 -13  139.73    8.87
   2  -2  13  136.61    8.99
  -2   0  13  158.77    9.54
   2   0 -13  156.03    5.66
  -2   2 -13  139.09    6.01
  -2   0  13  147.30    7.08
  -2   2 -13  158.13    9.15
  -2   2 -10 1540.97   37.02
   0   2  10 1535.21   40.40
   0  -2 -10 1684.16   40.65
   2  -2  10 1572.92   38.27
   0  -2 -10 1525.81   36.83
   0   2  10 1528.78   41.73
   0  -2 -10 1503.39   40.63
  -2   2 -10 1584.89   36.77
   2   0 -10 1541.73   39.54
   2   0 -10 1582.53   38.20
  -2   0  10 1609.25   37.50
  -2   2 -10 1548.18   39.75
  -2   0  10 1499.18   40.20
   2  -2  10 1537.70   40.17
   2  -2  10 1563.58   40.21
   0   2  10 1495.17   39.94
  -2   2  -7 2000.98   47.01
  -2   0   7 2024.48   44.53
   2  -2   7 2012.38   47.35
   0   2   7 2028.90   48.31
   0   2   7 2122.54   49.80
   2  -2   7 2036.88   48.07
   0   2   7 2037.02   48.16
  -2   2  -7 1971.16   49.10
   2   0  -7 2026.29   47.04
  -2   0   7 2028.12   46.53
   2   0  -7 2040.36   47.82
  -2   2  -7 1937.58   46.81
   2  -2   7 1924.94   48.03
  -2   0   7 2043.91   48.54
  -2   2  -7 2016.56   47.85
   0  -2  -7 2032.56   48.38
  -2   2  -7 2026.38   46.89
   0  -2  -4 9652.98  208.71
  -2   2  -4 9393.15  209.62
   0   2   4 9657.69  208.93
  -2   2  -4 9681.22  208.72
   2  -2   4 9610.80  208.45
   2   0  -4 9682.30  207.60
  -2   2  -4 9745.24  209.14
   2   0  -4 9819.59  206.49
   0  -2  -4 9791.13  209.85
   0   2   4 9798.88  210.38
   0  -2  -4 9527.70  208.63
  -2   0   4 9609.83  208.82
  -2   2  -4 9294.24  208.31
   2  -2   4 9147.45  208.38
   2   0  -4 9678.03  209.01
   2   0  -4 9999.00  208.91
   0   2   1  126.33    5.22
  -2   0   1  123.24    3.95
   0  -2  -1  126.60    5.08
   0  -2  -1  122.89    3.67
   0   2   1  126.51    5.11
  -2   2  -1  126.98    3.79
   2  -2   1  114.29    5.60
  -2   2  -1  119.41    5.62
  -2   2  -1  120.38    5.04
   2   0  -1  129.58    5.08
   2  -2   1  119.88    3.70
   0   2   1  120.84    4.29
   2   0  -1  123.13    4.43
   2  -2  -2 5600.00  131.50
   2  -2  -2 6167.60  130.76
  -2   2   2 5972.82  128.66
   2  -2  -2 5812.43  128.58
  -2   0  -2 5877.71  131.00
  -2   2   2 6014.92  129.45
  -2   2   2 5998.62  130.43
   0  -2   2 6036.02  130.91
   0   2  -2 5972.51  131.13
  -2   0  -2 6064.37  130.74
   2   0   2 6156.76  130.55
   0   2  -2 5987.58  128.56
  -2   2   2 6039.12  130.14
  -2   2   5 1712.43   39.44
   0   2  -5 1608.50   39.05
  -2   2   5 1692.42   38.97
  -2   0  -5 1638.44   39.44
  -2   0  -5 1689.86   41.65
   2  -2  -5 1684.55   38.18
  -2   2   5 1668.06   38.39
   2  -2  -5 1671.69   39.83
   0   2  -5 1636.96   40.33
   0  -2   5 1659.79   39.86
  -2   2   5 1713.62   39.60
   2  -2  -5 1688.77   39.93
   2   0   5 1635.64   39.80
  -2   0  -5 1634.63   40.12
   2  -2  -5 1633.06   38.95
  -2   2   5 1659.94   39.15
  -2   2   8  502.72   15.23
  -2   0  -8  472.85   17.69
  -2   2   8  501.24   13.84
  -2   2   8  514.10   15.90
   0   2  -8  496.63   15.77
   2  -2  -8  525.56   14.70
  -2   0  -8  524.52   16.56
   2   0   8  517.26   16.14
  -2   2   8  496.87   14.35
  -2   0  -8  507.57   15.83
  -2   2   8  497.05   15.86
   2  -2  -8  530.34   15.95
   0   2  -8  509.64   12.34
   0  -2   8  495.91   15.66
  -2   2  11  904.36   26.02
   0   2 -11  824.69   24.97
  -2   0 -11  762.20   26.85
   2   0  11  883.33   22.03
  -2   2  11  899.09   21.34
  -2   2  11  879.88   21.88
   0  -2  11  835.70   21.80
   2  -2 -11  782.57   23.82
   2  -2 -11  861.92   20.18
   0   2 -11  853.66   25.28
   0  -2  11  901.46   24.77
   0   2 -11  894.01   25.64
  -2   2  11  862.97   25.81
  -2   0 -11  879.40   25.45
   2  -2 -11  894.05   25.40
  -2   0 -11  859.04   26.35
   2   0  11  850.81   25.70
   0   2 -14 7041.29  155.76
   0  -2  14 6843.47  149.17
   0   2 -14 6692.24  155.40
   2  -2 -14 6714.06  149.28
   0  -2  14 6847.41  154.24
   2  -2 -14 6878.78  154.97
   2   0  14 6787.91  156.44
   0   2 -14 6967.74  156.15
   2   0  14 6950.17  149.47
  -2   0 -14 7000.06  156.02
  -2   2  14 6853.30  156.95
   2  -2 -14 6905.85  155.81
  -2   2  17  152.76   10.92
   0   2 -17  143.29    9.79
   2  -2 -17  144.47    6.54
   0   2 -17  138.17    9.68
   0   2 -17  156.01    5.09
   0   2 -17  143.74   10.27
  -2   0 -17  162.34   12.05
   2  -2 -17  134.41    9.62
  -2   0 -17  149.12   10.36
   2  -2 -17  173.15   10.90
  -2   2  17  162.49   11.03
   2   0  20 1384.13   38.95
  -2   0 -20 1421.49   40.05
   2  -2 -20 1416.65   41.02
   0   2 -20 1425.62   41.04
   2  -2 -20 1421.21   35.03
  -2   2  20 1377.81   43.30
   2   0  23  785.85   25.80
   2  -2 -23  797.03   22.44
   0   2 -23  873.82   28.68
  -2   0 -23  813.15   27.35
  -2   2  23  794.33   30.89
   0   2 -26    5.46    7.20
   2  -2 -26    1.51    3.97
  -2   0 -26    2.54    6.55
  -2   2  26    2.61    8.04
   2   0  26    0.65    5.31
   0   2 -29  103.15   10.69
  -2   0 -29   83.95   10.42
  -2   2  29   94.63   14.00
   2   0  29   84.68    8.28
  -1   3 -31    1.08    9.21
  -1   3 -28   95.81   11.54
   2   1  28  107.87   10.23
  -2  -1 -28  100.77   10.26
   1  -3  28   79.38   12.77
  -3   2  28   96.10   13.76
   1  -3  25  545.40   25.73
  -3   2  25  520.42   25.03
   3  -2 -25  529.20   15.95
  -2  -1 -25  520.31   20.91
   2   1  25  540.24   26.27
   2   1  25  581.56   21.65
  -1   3 -25  537.64   23.25
  -1   3 -22 1210.25   37.56
   3  -2 -22 1145.81   29.90
   1  -3  22 1147.14   39.25
  -3   2  22 1186.55   39.64
   2   1  22 1168.84   40.12
  -2  -1 -22 1244.69   35.51
   3  -2 -22 1172.55   35.19
  -1   3 -19  610.01   22.25
   3  -2 -19  526.44   15.30
  -2  -1 -19  482.54   12.29
  -2  -1 -19  511.95   12.31
   2   1  19  570.27   23.37
   1  -3  19  556.70   22.80
  -3   2  19  605.57   23.37
  -1   3 -19  533.61   13.94
   3  -2 -19  601.83   20.18
   2   1  16  192.56    7.38
  -1   3 -16  186.36   11.28
   3  -2 -16  207.79    7.36
  -1   3 -16  199.39   11.92
   3  -2 -16  171.19   10.85
  -2  -1 -16  210.74   11.92
  -3   2  16  203.73   12.05
   1  -3  16  196.03   11.97
   2   1  16  197.70   11.97
   3  -2 -16  184.98   10.04
  -2  -1 -16  206.33   13.36
  -1   3 -16  204.56   11.50
   2   1  16  197.58   12.16
  -3   2  16  185.69    7.19
   1  -3  16  185.34    7.33
  -3   2  13  359.67   11.47
   1  -3  13  368.86   11.75
   2   1  13  365.25   14.99
  -2  -1 -13  329.46   15.41
  -3   2  13  286.56   13.93
   3  -2 -13  337.99   12.47
   3  -2 -13  346.64    9.91
  -1   3 -13  358.23   15.03
   2   1  13  334.32   14.81
  -1   3 -13  367.83   14.73
  -2  -1 -13  363.30   14.75
   3  -2 -13  326.41   14.03
   1  -3  13  336.30   14.77
  -3   2  13  364.66   15.10
   1  -3  10  162.69    7.29
  -3   2  10  164.52    7.45
   2   1  10  139.53    8.20
  -2  -1 -10  172.12    8.81
  -1   3 -10  166.70    6.20
  -2  -1 -10  165.16    9.17
   2   1  10  166.64    8.89
  -2  -1 -10  168.64    9.98
   3  -2 -10  168.64    6.82
   3  -2 -10  167.49    8.72
  -3   2  10  157.86    8.54
  -3   2  10  174.56    8.85
   3  -2 -10  155.34    8.16
   1  -3  10  181.14    8.96
   1  -3  10  159.44    8.59
  -3   2  10  163.82    4.98
   3  -2 -10  145.53    8.02
  -3   2   7 2891.45   68.45
  -2  -1  -7 2978.90   69.50
   2   1   7 2912.20   68.64
  -3   2   7 2900.81   68.19
  -3   2   7 2982.14   67.53
  -2  -1  -7 2972.40   68.58
   2   1   7 2918.91   68.80
  -1   3  -7 2912.83   65.97
   1  -3   7 2931.98   68.27
   2   1   7 2906.71   71.60
  -3   2   7 2959.93   65.82
  -2  -1  -7 2951.06   70.35
   3  -2  -7 2954.09   65.08
   3  -2  -7 3039.48   68.99
  -3   2   7 2982.07   64.31
  -1   3  -7 2931.61   69.70
  -3   2   7 2877.70   68.10
   1  -3   7 2903.68   68.15
   3  -2  -7 2917.24   67.55
   1  -3   7 2982.57   69.24
   3  -2  -7 2905.92   68.12
  -2  -1  -4  623.47   18.19
   2   1   4  651.51   18.04
   3  -2  -4  648.70   18.48
  -3   2   4  646.83   17.43
  -2  -1  -4  652.59   17.96
  -2  -1  -4  656.23   18.67
  -3   2   4  630.61   15.32
  -3   2   4  620.50   17.72
   3  -2  -4  658.54   18.30
  -1   3  -4  653.12   18.88
  -3   2   4  650.64   16.71
   1  -3   4  663.47   18.61
  -3   2   4  643.50   17.91
  -1   3  -1 2166.91   49.65
  -2  -1  -1 2072.50   48.98
  -3   2   1 2163.18   49.68
   1  -3   1 2054.19   50.90
   3  -2  -1 2175.74   49.98
  -1   3  -1 2182.99   49.89
   1  -3   1 2141.60   46.88
   2   1   1 2158.86   49.44
  -2  -1  -1 2150.75   49.74
  -3   2   1 2064.89   50.93
  -3   2   1 2094.38   50.35
   3  -2  -1 2064.48   50.75
   3  -2  -1 2198.74   49.81
   3  -2   2  693.74   19.99
  -3   2  -2  708.87   19.68
  -3   2  -2  701.53   20.28
   3  -2   2  689.74   17.72
   1  -3  -2  710.17   17.80
   1  -3  -2  716.21   20.29
  -1   3   2  704.16   16.75
  -3   2  -2  709.60   16.83
  -2  -1   2  707.58   17.42
  -1   3   2  689.90   19.00
   2   1  -2  714.93   17.72
  -1   3   2  716.74   17.66
   2   1  -2  715.07   16.95
  -2  -1   2  731.53   19.48
  -1   3   2  677.62   18.14
   1  -3  -2  705.11   18.20
  -1   3   2  729.54   16.92
   1  -3  -2  723.23   17.12
  -3   2  -2  682.74   17.81
  -3   2  -2  718.44   19.22
   3  -2   2  682.05   19.34
  -2  -1   2  675.14   17.70
  -3   2  -5 1651.30   40.92
  -1   3   5 1687.86   39.68
   1  -3  -5 1720.65   39.61
   3  -2   5 1659.60   38.94
  -3   2  -5 1626.71   40.42
  -3   2  -5 1673.62   40.40
  -1   3   5 1676.95   39.18
  -2  -1   5 1651.12   39.43
   1  -3  -5 1625.56   40.87
  -1   3   5 1704.26   40.80
   2   1  -5 1622.48   37.90
   1  -3  -5 1631.32   39.26
   1  -3  -5 1711.02   38.29
  -2  -1   5 1655.58   40.08
  -3   2  -5 1665.74   39.06
   3  -2   5 1724.04   39.60
  -1   3   5 1639.36   39.02
   1  -3  -5 1652.35   39.62
  -3   2  -5 1658.96   39.71
   2   1  -5 1595.17   39.07
   1  -3  -5 1679.90   38.66
   3  -2   8   47.97    4.50
  -2  -1   8   55.05    4.25
   1  -3  -8   52.01    4.26
  -3   2  -8   52.42    4.31
  -1   3   8   45.90    4.11
   3  -2   8   50.70    4.25
  -1   3   8   45.33    4.52
   1  -3  -8   48.65    4.43
   2   1  -8   50.56    4.28
  -2  -1   8   44.88    3.96
   2   1  -8   51.38    4.36
   1  -3  -8   44.12    2.88
  -2  -1   8   51.60    4.60
  -3   2  -8   48.16    4.28
   1  -3  -8   49.13    4.49
   1  -3  -8   45.89    3.91
  -3   2  -8   50.17    4.17
  -3   2  -8   45.52    4.24
   3  -2   8   54.75    4.49
  -1   3   8   44.08    4.18
   3  -2  11 4976.70  113.57
   1  -3 -11 4995.38  113.84
  -2  -1  11 4931.09  114.36
  -3   2 -11 5008.26  111.22
  -1   3  11 5052.49  115.81
   1  -3 -11 4945.56  114.18
   2   1 -11 5015.90  113.41
   3  -2  11 5020.00  114.13
  -1   3  11 4883.97  113.98
   2   1 -11 4871.59  113.26
  -2  -1  11 4944.42  112.02
  -1   3  11 4987.81  114.52
   3  -2  11 5035.20  114.43
   1  -3 -11 5034.12  111.38
  -3   2 -11 4927.40  110.92
  -3   2 -11 4894.45  113.69
  -2  -1  11 5126.10  115.09
   1  -3 -11 4944.50  113.75
  -1   3  14  435.10   17.52
   3  -2  14  488.97   18.15
   3  -2  14  476.71   16.49
   2   1 -14  457.21   16.97
   1  -3 -14  437.23   17.13
  -1   3  14  409.14   18.17
   1  -3 -14  453.84   17.56
   3  -2  14  455.95   17.50
  -1   3  14  410.77   16.92
   2   1 -14  407.26   15.93
  -3   2 -14  450.11   17.18
   1  -3 -14  440.26   17.06
  -2  -1  14  431.13   17.75
  -3   2 -14  434.22   13.17
   1  -3 -14  443.30   13.58
  -3   2 -14  434.43   17.43
  -2  -1  14  431.39   15.19
   2   1 -17  416.86   12.06
  -1   3  17  410.23   11.05
   3  -2  17  454.42   16.48
   1  -3 -17  413.78   18.16
   3  -2  17  447.52   18.68
  -1   3  17  407.61   18.17
  -1   3  17  402.49   18.50
   3  -2  17  434.25   18.86
   2   1 -17  417.12   16.73
   1  -3 -17  455.65   18.48
  -2  -1  17  449.20   19.56
  -3   2 -17  425.86   17.77
   1  -3 -17  429.29   18.13
   2   1 -17  433.58   17.75
  -3   2 -17  448.36   12.07
  -2  -1  17  443.57   15.81
   1  -3 -17  414.81   13.12
  -3   2 -17  457.16   18.53
   2   1 -20  501.36   19.54
   2   1 -20  516.13   20.57
  -2  -1  20  589.39   24.13
   3  -2  20  519.77   18.70
   3  -2  20  506.71   22.38
  -1   3  20  515.15   22.76
   1  -3 -20  513.11   15.71
  -3   2 -20  536.34   21.45
   1  -3 -23  414.18   13.96
   2   1 -23  445.78   18.49
  -2  -1  23  441.95   22.64
   2   1 -23  427.47   19.36
   3  -2  23  422.45   16.78
   3  -2  23  454.73   22.21
  -1   3  23  431.55   21.85
  -3   2 -23  462.03   20.42
  -2  -1  26   27.76   10.32
   3  -2  26   26.33    9.84
  -1   3  26   37.61   10.27
  -3   2 -26   39.81    9.06
   2   1 -26   36.42    7.29
   1  -3 -26   30.81    4.82
   3  -2  26   39.24    6.47
   3  -2  29  820.98   35.06
  -1   3  29  868.59   35.69
  -2  -1  29  817.55   35.41
  -3   2 -29  872.50   31.84
   2   1 -29  856.51   28.79
  -3   2 -32   10.75    9.96
  -2   3 -32   24.42   10.00
   1   2  29  623.93   22.74
  -2   3 -29  634.19   26.44
  -3   1  29  587.40   28.90
   2  -3  29  564.61   28.43
   1   2  29  618.23   29.85
  -3   1  26  170.81   15.36
   1   2  26  164.50   15.42
   2  -3  26  184.09   15.72
  -2   3 -26  168.95   13.69
   3  -1 -26  180.43    9.98
  -1  -2 -26  187.41   11.31
   2  -3  23  206.07   14.94
  -3   1  23  199.99   15.13
   3  -1 -23  191.30   12.12
  -2   3 -23  159.18   12.66
   3  -1 -23  208.81   10.21
  -1  -2 -23  191.76   11.09
   1   2  23  184.62   14.45
   3  -1 -20    6.09    4.78
  -3   1  20    2.62    1.25
  -2   3 -20   -4.48    5.52
  -1  -2 -20    8.17    4.38
   3  -1 -20    4.34    3.70
   2  -3  20    1.02    5.86
  -3   1  20    7.36    6.26
   1   2  20    4.33    6.15
  -3   1  17  685.25   17.25
   2  -3  17  706.83   20.25
  -1  -2 -17  723.65   24.70
  -1  -2 -17  713.30   18.13
  -3   1  17  696.87   18.05
   1   2  17  734.19   26.26
   3  -1 -17  689.96   22.43
  -1  -2 -17  663.64   25.65
   3  -1 -17  697.64   24.53
   2  -3  17  665.98   24.54
   3  -1 -17  697.21   20.73
   2  -3  17  711.20   25.58
  -2   3 -17  674.99   24.19
  -3   1  17  675.23   25.40
   1   2  17  714.26   17.86
  -2   3 -17  687.03   18.69
  -2   3 -17  717.80   25.20
  -2   3 -14  265.75    9.57
   1   2  14  243.84   12.81
  -3   1  14  266.03    9.52
   2  -3  14  262.53   10.08
  -3   1  14  256.93    8.12
  -3   1  14  278.04   13.49
   3  -1 -14  249.05   10.76
  -1  -2 -14  260.10   13.86
   3  -1 -14  260.99   12.61
   1   2  14  300.11   13.55
   2  -3  14  287.23   13.36
   3  -1 -14  243.10    9.90
  -3   1  14  259.54   13.11
   2  -3  14  283.68   13.37
  -1  -2 -14  253.75   12.60
  -2   3 -14  272.23   12.74
   3  -1 -14  274.09   12.68
  -2   3 -14  279.56   13.42
  -3   1  14  245.87    9.13
   3  -1 -11 1620.39   38.47
   1   2  11 1585.64   42.24
  -2   3 -11 1564.00   38.51
  -3   1  11 1553.44   36.84
  -3   1  11 1539.42   41.71
   2  -3  11 1576.35   38.91
   1   2  11 1649.59   44.86
   3  -1 -11 1626.76   38.73
   2  -3  11 1585.29   41.54
   1   2  11 1587.87   41.72
   3  -1 -11 1601.53   38.32
  -3   1  11 1594.06   37.55
   2  -3  11 1644.29   39.25
   2  -3  11 1651.30   42.11
  -1  -2 -11 1619.31   41.62
  -3   1  11 1573.77   41.92
  -2   3 -11 1586.61   41.13
   3  -1 -11 1538.91   41.06
  -3   1   8  597.02   18.62
   2  -3   8  585.32   18.27
   1   2   8  629.67   18.86
   2  -3   8  600.52   18.13
  -1  -2  -8  629.34   18.95
   1   2   8  619.74   19.20
   3  -1  -8  610.08   17.79
  -3   1   8  638.12   16.34
  -2   3  -8  601.28   17.14
   3  -1  -8  633.39   15.50
   1   2   8  641.63   20.73
  -2   3  -8  605.55   19.84
  -1  -2  -8  618.75   19.81
  -2   3  -8  623.75   17.88
  -3   1   8  641.98   16.43
   3  -1  -8  655.35   19.07
   3  -1  -8  642.44   18.66
  -2   3  -8  618.55   18.14
   2  -3   8  641.32   18.91
  -3   1   8  606.63   18.70
   3  -1  -5    7.25    2.31
  -2   3  -5    3.41    2.22
   2  -3   5    5.59    2.77
  -2   3  -5    4.52    2.50
   2  -3   5    3.08    1.89
   2  -3   5    3.60    1.76
  -3   1   5    7.14    2.01
  -3   1   5    4.33    1.65
  -2   3  -5    3.52    1.71
   3  -1  -5   10.65    2.32
   1   2   5    6.26    2.25
  -1  -2  -5    4.62    2.43
  -3   1   5    4.64    1.90
   3  -1  -5    3.17    2.11
   1   2   5    7.81    2.32
   2  -3   5    6.44    1.81
  -1  -2  -5    3.60    2.12
  -3   1   5    3.53    1.63
   3  -1  -2  251.87    8.62
   3  -1  -2  249.99    8.61
  -3   1   2  257.42    6.77
  -1  -2  -2  256.16    8.93
   2  -3   2  249.22    7.09
   1   2   2  245.95    8.37
  -2   3  -2  250.71    9.53
  -2   3  -2  257.14    9.27
   2  -3   2  247.48    6.36
   3  -1  -2  247.59    9.66
  -2   3   1 1044.22   24.96
  -1  -2   1  960.14   24.55
  -2   3   1 1038.34   24.98
  -1  -2   1 1001.04   22.73
  -1  -2   1  998.90   25.68
  -2   3   1  977.22   24.41
   1   2  -1  991.94   26.04
   3  -1   1 1013.03   26.70
  -3   1  -1 1039.33   25.11
  -2   3   1  990.54   26.22
   2  -3  -1  992.19   26.66
   3  -1   1 1030.46   26.02
  -3   1  -1 1007.05   25.69
   2  -3  -1  954.26   24.50
   2  -3  -1 1003.26   22.81
  -1  -2   4 1774.28   40.41
  -3   1  -4 1776.08   41.98
   3  -1   4 1749.12   43.06
   2  -3  -4 1713.32   39.39
   2  -3  -4 1707.28   40.99
   1   2  -4 1687.43   40.86
  -2   3   4 1842.06   41.47
  -2   3   4 1790.30   41.55
  -2   3   4 1742.95   39.24
   1   2  -4 1690.48   42.62
  -1  -2   4 1766.21   42.27
  -2   3   4 1765.44   40.91
   2  -3  -4 1740.63   40.75
   1   2  -4 1751.87   40.00
  -2   3   4 1794.39   40.31
  -3   1  -4 1764.08   40.98
   2  -3  -4 1761.70   40.40
   2  -3  -4 1793.26   43.09
  -2   3   7 1010.86   27.48
  -3   1  -7 1056.53   28.22
   2  -3  -7 1040.79   27.71
   3  -1   7 1057.36   27.61
   2  -3  -7 1071.40   27.34
  -2   3   7 1065.02   27.34
  -2   3   7 1063.85   27.51
   2  -3  -7 1072.55   26.96
   2  -3  -7 1094.46   27.22
  -1  -2   7 1043.21   27.67
  -3   1  -7 1041.95   27.29
   3  -1   7 1035.71   27.45
  -2   3   7 1073.17   27.26
  -1  -2   7 1022.46   28.26
  -2   3   7 1016.66   27.24
   1   2  -7 1055.06   26.75
   3  -1  10    0.55    2.60
   2  -3 -10    0.73    1.96
   3  -1  10    5.33    2.33
  -3   1 -10    5.16    3.64
   3  -1  10    1.53    2.53
  -2   3  10    0.50    2.50
  -2   3  10    1.01    2.48
   2  -3 -10    0.41    2.53
   1   2 -10    3.17    2.79
   2  -3 -10   -0.45    3.06
   1   2 -10    2.64    3.03
  -2   3  10    1.01    2.28
   2  -3 -10   -1.89    2.83
  -1  -2  10    3.33    2.49
  -1  -2  10   -0.44    2.83
  -3   1 -10    1.70    2.82
  -2   3  10   -8.65    3.43
  -1  -2  13   20.12    4.06
  -1  -2  13   31.73    4.98
  -3   1 -13   23.28    4.78
   2  -3 -13   20.82    4.64
  -2   3  13   26.19    2.92
   2  -3 -13   32.20    3.46
  -3   1 -13   26.72    3.30
   3  -1  13   28.32    4.75
   3  -1  13   28.23    5.10
  -2   3  13   20.39    4.53
   2  -3 -13   27.84    4.69
  -2   3  13   25.97    4.95
  -3   1 -13   25.72    6.21
   2  -3 -13   28.02    1.66
  -3   1 -13   27.97    4.89
  -2   3  13   28.79    5.12
   2  -3 -13   34.86    5.07
   1   2 -13   26.82    4.64
   1   2 -13   25.38    4.57
  -2   3  16  110.23    4.48
   3  -1  16  112.68    8.23
   3  -1  16  106.83    8.94
  -2   3  16  102.11    8.81
   1   2 -16   99.87    8.46
   2  -3 -16   99.59    8.53
  -1  -2  16  108.72    5.23
   2  -3 -16  110.33    8.48
   1   2 -16  117.61    8.59
   2  -3 -16  108.56    4.27
  -1  -2  16   91.63    7.65
   3  -1  16  101.83    8.83
  -2   3  16  100.07    8.60
   2  -3 -16  106.67    8.57
  -1  -2  16  105.77    8.96
  -3   1 -16  100.40    8.64
  -3   1 -16   96.14    5.00
  -3   1 -19  267.30   13.81
  -1  -2  19  220.31    6.39
   3  -1  19  241.00   14.43
  -2   3  19  228.41   14.42
   3  -1  19  270.55   12.84
   2  -3 -19  202.93   12.66
   2  -3 -19  241.93    7.87
   1   2 -19  268.74   13.67
  -1  -2  19  243.04   15.04
  -1  -2  22  619.70   27.16
  -3   1 -22  670.63   24.69
   3  -1  22  652.54   22.61
  -2   3  22  604.96   26.33
   3  -1  22  654.12   26.87
   2  -3 -22  629.26   16.90
   1   2 -22  648.57   24.16
   1   2 -25   92.39   10.01
   2  -3 -25   74.60    4.60
  -1  -2  25   97.94   12.85
  -2   3  25   59.59   10.55
   3  -1  25   85.75   11.93
   3  -1  25   67.50    7.85
  -3   1 -25   71.17    9.59
  -2   3  28   64.50   12.20
   3  -1  28   67.32   12.09
   3  -1  28   63.78    8.04
  -3   1 -28   86.01   11.09
   1   2 -28   72.76    9.96
  -3   1 -31   12.17    9.09
  -3   0  30  679.92   31.89
   3  -3  30  715.22   31.88
   0   3  30  640.55   31.39
  -3   3 -30  647.91   28.00
   3  -3  27  112.52   13.42
  -3   0  27  131.24   14.75
   0   3  27  113.96   14.15
   3   0 -27  129.26    9.91
   0  -3 -27  123.52    8.26
  -3   3 -27  111.71   12.25
  -3   0  24  230.03   17.07
   0  -3 -24  217.48   10.54
   3  -3  24  183.43   15.05
   0   3  24  224.82   16.54
   3   0 -24  225.46   12.01
  -3   3 -24  213.19   14.80
   3   0 -24  200.28   12.80
   3  -3  24  230.53   10.96
  -3   0  21 1193.98   40.39
  -3   3 -21 1285.73   39.15
   0  -3 -21 1262.95   32.83
   0   3  21 1177.29   40.02
   3  -3  21 1205.09   39.53
   3   0 -21 1161.37   34.45
   3   0 -21 1187.81   35.43
   3  -3  21 1229.59   33.62
   3  -3  18  123.28    7.93
   0   3  18   97.26    9.67
  -3   3 -18  107.23    9.67
  -3   0  18  113.86    7.36
   3   0 -18  113.50    8.17
  -3   0  18  112.83    5.66
   0  -3 -18  124.20    5.68
   3   0 -18  119.96    8.73
  -3   0  18  119.90   10.33
   3  -3  18  125.24   10.14
   0  -3 -15  330.24   11.63
   0   3  15  325.48   15.71
   3   0 -15  319.71   11.26
  -3   3 -15  338.81   11.78
   3  -3  15  323.32   13.17
   0  -3 -15  374.00   15.50
   3   0 -15  351.29   13.76
   0  -3 -15  353.02   16.14
   3   0 -15  359.89   15.25
   3   0 -15  346.34   13.62
  -3   3 -15  399.28   16.65
  -3   0  15  352.37   12.55
  -3   0  15  332.44   15.83
   3  -3  15  332.64   15.47
   0  -3 -15  378.18   15.70
  -3   3 -15  347.73   14.97
   3  -3  15  348.51   15.47
   0   3  15  327.29   15.07
   3   0 -12 2716.48   62.12
  -3   3 -12 2584.76   61.94
   0   3  12 2678.62   65.80
   0  -3 -12 2690.65   65.13
   3  -3  12 2626.95   63.58
   0  -3 -12 2629.82   62.15
   0   3  12 2661.39   68.12
   0  -3 -12 2586.93   65.91
  -3   3 -12 2625.90   61.75
   3   0 -12 2705.95   63.39
  -3   0  12 2632.24   61.90
   0  -3 -12 2657.17   64.93
  -3   0  12 2697.62   66.10
   3  -3  12 2615.25   65.27
  -3   3 -12 2626.29   64.41
   3  -3  12 2643.61   64.81
   0   3  12 2690.48   65.27
   3   0 -12 2702.28   64.71
  -3   3  -9 1291.79   32.67
   0  -3  -9 1290.85   33.60
   0   3   9 1242.63   33.33
   3  -3   9 1258.53   33.00
   0  -3  -9 1318.14   34.49
  -3   3  -9 1260.90   32.55
   3  -3   9 1290.81   33.36
   0   3   9 1257.62   35.58
   0   3   9 1281.00   34.06
  -3   3  -9 1279.50   35.27
   3   0  -9 1247.98   32.77
  -3   0   9 1269.09   31.82
   3   0  -9 1263.52   33.13
  -3   0   9 1276.28   34.14
  -3   3  -9 1291.63   33.03
   3  -3   9 1260.84   33.40
  -3   3  -9 1255.44   32.49
   3   0  -6  524.65   15.64
   0  -3  -6  511.21   15.07
  -3   3  -6  489.72   15.83
   0  -3  -6  535.06   16.01
  -3   3  -6  508.90   15.20
   3  -3   6  494.33   14.70
   0   3   6  497.55   15.28
  -3   3  -6  533.68   15.74
   3  -3   6  528.98   16.17
   3   0  -6  518.24   13.85
   3  -3   6  550.44   17.07
  -3   3  -6  529.46   16.32
   0   3   6  539.73   17.31
   3   0  -6  515.84   12.33
   0  -3  -6  515.59   15.14
  -3   0   6  528.01   15.32
   3  -3   6  497.09   14.82
  -3   3  -6  520.00   14.82
  -3   3  -6  532.85   17.32
   3   0  -6  543.67   15.55
  -3   3  -3 2621.66   57.89
   0  -3  -3 2595.87   59.02
   3  -3   3 2600.41   57.65
   0   3   3 2513.01   58.62
   0  -3  -3 2589.64   57.16
   3   0  -3 2641.00   57.25
  -3   3  -3 2595.55   60.22
   3   0  -3 2577.50   59.27
   0   3   3 2590.88   60.83
  -3   0   3 2582.70   56.66
   0  -3  -3 2553.16   60.25
   0   3   3 2611.17   59.97
  -3   0   3 2571.28   60.08
   3   0  -3 2578.67   58.99
  -3   0   3 2594.43   58.61
   0  -3  -3 2579.37   57.59
   0  -3  -3 2592.32   59.69
  -3   3  -3 2633.41   57.16
   3  -3   3 2574.25   57.20
  -3   3  -3 2588.32   61.18
  -3   3  -3 2612.98   61.32
   3   0   0  128.11    5.81
  -3   3   0  105.12    5.71
  -3   0   0  133.48    5.24
  -3   3   0  134.48    5.94
  -3   0   0  135.82    5.27
   0   3   0  125.68    6.03
   0  -3   0  122.84    5.84
   0   3   0  124.19    3.91
   0   3   0  129.67    6.28
  -3   3   0  127.47    4.16
  -3   0   0  123.09    5.96
   0  -3   0  131.45    5.04
  -3   3   0  122.71    6.81
   3  -3   0  134.49    7.07
   3   0   0  121.02    6.21
  -3   3   0  127.61    6.09
   0   3  -3  366.69    9.23
   3   0   3  325.85   11.38
  -3   0  -3  336.34   11.63
  -3   3   3  356.35    9.30
   3  -3  -3  379.82   12.09
   3  -3  -3  343.42   12.71
  -3   0  -3  338.53   11.87
  -3   3   3  366.39   10.45
  -3   3   3  332.48   11.30
   0   3  -3  338.26   12.13
   0  -3   3  345.78   11.85
   3  -3  -3  346.84    9.25
  -3   3   3  340.99    9.93
  -3   3   3  347.89   11.10
  -3   3   6  738.42   20.80
  -3   0  -6  757.69   20.93
   0   3  -6  758.38   19.90
   3  -3  -6  764.70   22.17
  -3   3   6  761.43   21.43
  -3   0  -6  724.09   22.71
   3  -3  -6  747.52   19.18
  -3   3   6  766.84   19.62
   3  -3  -6  722.40   21.27
   0   3  -6  786.32   22.40
   0  -3   6  743.51   21.50
   3   0   6  737.61   21.27
  -3   0  -6  734.97   21.57
  -3   3   6  718.80   20.61
   3  -3  -6  743.30   19.83
  -3   3   6  754.79   20.03
  -3   3   9 1973.26   47.91
  -3   0  -9 1995.50   49.59
   0   3  -9 2058.43   45.47
  -3   3   9 2086.73   48.72
  -3   0  -9 1952.02   52.50
   0   3  -9 2051.14   49.15
  -3   3   9 1965.04   49.82
   3  -3  -9 2001.79   47.38
   3  -3  -9 2067.21   50.48
  -3   3   9 1986.81   49.40
   3  -3  -9 2008.12   49.12
   0  -3   9 2037.04   50.11
  -3   0  -9 2109.68   51.17
   3   0   9 1901.25   49.88
  -3   3   9 2023.56   48.73
   3   0  12  855.62   23.47
  -3   3  12  859.87   22.53
  -3   0 -12  836.76   27.22
   0  -3  12  835.71   23.30
   0   3 -12  848.20   25.31
  -3   3  12  814.89   25.90
  -3   3  12  857.57   23.27
  -3   0 -12  854.87   28.63
  -3   3  12  822.57   25.10
   3  -3 -12  855.17   23.73
   3  -3 -12  859.20   26.84
   0   3 -12  921.54   27.26
  -3   3  12  880.17   26.32
  -3   0 -12  836.56   25.64
   3  -3 -12  819.11   25.28
   0  -3  12  900.92   25.98
   3  -3 -12  864.59   25.65
   0   3 -15 2536.31   62.54
   3  -3 -15 2562.87   61.23
   0  -3  15 2351.08   57.95
   0   3 -15 2425.40   63.84
   0  -3  15 2537.68   62.26
  -3   0 -15 2420.90   65.34
   3   0  15 2488.76   58.32
   3  -3 -15 2594.64   63.11
  -3   0 -15 2543.62   63.38
  -3   3  15 2455.07   63.87
   3  -3 -15 2517.05   63.19
  -3   3  15 2512.22   57.79
   3  -3 -18    7.33    4.74
   0  -3  18    4.36    2.36
  -3   0 -18    5.46    2.30
  -3   3  18    8.20    5.61
   0   3 -18   -0.85    5.12
   3  -3 -21   62.74    7.78
   0   3 -21   74.33    9.21
  -3   3  21   73.06    9.99
   0   3 -21   51.04    2.91
   3   0  21   44.30    7.12
  -3   0 -21   53.96    7.81
  -3   0 -24  338.86   17.19
   0   3 -24  328.56   17.61
   3   0  24  331.15   16.00
  -3   3  24  343.40   19.45
  -3   3  27 1487.28   49.33
   3   0  27 1525.33   50.54
   3   0  27 1537.02   43.13
   0  -3  27 1438.34   49.94
  -3   0 -27 1512.97   45.05
   0   3 -27 1480.35   45.89
   3   0  30  142.00   16.31
   0  -3  30  129.05   16.00
  -3   3  30  155.14   16.43
   0   3 -30  153.31   13.87
  -3   0 -30  158.97   13.20
  -1   4 -32  143.85   14.84
  -3  -1 -29   45.66    9.35
  -4   3  29   53.88   11.81
   1  -4  29   45.97   11.71
   4  -3 -29   49.71   12.59
  -1   4 -29   37.31   10.73
   3   1  29   45.92    9.18
  -1   4 -26  153.65   13.62
   1  -4  26  159.92   15.59
  -4   3  26  188.55   15.61
  -3  -1 -26  174.54   12.86
   3   1  26  180.11   13.15
   4  -3 -26  151.65   16.44
  -1   4 -23   37.36    8.73
  -4   3  23   39.31    8.80
   1  -4  23   36.91    9.51
   4  -3 -23   25.72    6.79
  -4   3  23   37.83    5.01
   4  -3 -23   41.81   10.48
  -3  -1 -23   38.50    7.52
  -4   3  20  121.55   11.30
   1  -4  20  120.12   11.33
   4  -3 -20  116.89   11.84
   3   1  20  128.76    6.27
   4  -3 -20  119.01    8.83
  -1   4 -20  133.90   11.32
   4  -3 -17  231.85   10.67
   4  -3 -17  220.73   13.93
  -1   4 -17  246.61   14.09
  -4   3  17  225.69   13.36
   1  -4  17  226.62   13.74
   4  -3 -17  237.88   13.28
  -3  -1 -17  226.52   14.32
   3   1  17  218.38    9.41
  -4   3  17  216.73    9.17
   1  -4  17  231.28    9.72
  -4   3  17  216.70   13.42
  -1   4 -17  210.55   12.18
   1  -4  14  484.86   15.86
  -4   3  14  509.77   15.84
  -3  -1 -14  456.03   19.43
   3   1  14  469.11   18.55
  -3  -1 -14  434.07   19.96
   4  -3 -14  438.83   14.76
   4  -3 -14  494.11   19.38
  -1   4 -14  467.90   19.24
  -1   4 -14  470.53   17.71
  -4   3  14  492.09   19.08
   1  -4  14  466.87   18.16
  -4   3  14  476.30   18.66
   1  -4  14  461.50   18.83
  -3  -1 -14  474.85   18.36
   4  -3 -14  488.46   17.93
  -4   3  11  147.49    7.51
  -3  -1 -11  156.57    9.04
  -1   4 -11  140.13    6.10
  -4   3  11  151.76    7.89
   1  -4  11  138.94    7.78
  -3  -1 -11  141.75   10.13
   4  -3 -11  137.53    6.15
   4  -3 -11  152.19    9.16
  -4   3  11  153.22    8.76
   1  -4  11  151.18    8.80
   4  -3 -11  143.46    8.14
   1  -4  11  144.28    9.08
  -4   3  11  141.22    8.66
  -3  -1 -11  170.33    9.82
   3   1  11  156.33    9.19
   3   1   8  701.48   22.05
  -3  -1  -8  759.59   23.12
  -4   3   8  651.20   21.57
  -4   3   8  719.40   21.29
   1  -4   8  821.25   23.01
  -3  -1  -8  709.61   21.89
  -4   3   8  745.98   19.27
  -3  -1  -8  757.49   23.85
   4  -3  -8  746.10   18.51
   1  -4   8  728.28   22.76
  -1   4  -8  728.77   23.51
  -4   3   8  738.27   17.27
   4  -3  -8  719.34   20.60
   4  -3  -8  748.46   22.69
  -4   3   8  729.83   21.27
   1  -4   8  763.31   22.14
  -4   3   8  797.52   22.57
   3   1   5    1.24    2.48
   1  -4   5    6.47    3.43
  -4   3   5    3.45    1.63
  -4   3   5    1.48    2.31
   4  -3  -5    5.08    2.14
  -4   3   5    0.78    2.39
  -4   3   5    2.69    1.19
  -3  -1  -5    3.76    3.08
  -4   3   5    0.41    1.91
  -1   4  -5    3.11    2.41
  -3  -1  -5    4.59    2.53
  -4   3   5    3.03    2.73
  -3  -1  -5    1.19    2.46
  -4   3   5    6.50    3.03
   1  -4   5    6.79    2.82
  -1   4  -2    3.54    1.80
  -3  -1  -2    3.40    2.23
   3   1   2   11.19    2.67
   3   1   2    7.31    2.38
   1  -4   2    5.16    1.26
  -3  -1  -2    4.07    2.31
  -1   4  -2   14.15    2.73
  -4   3   2    4.86    1.13
   4  -3  -2    9.37    2.60
  -4   3   2    5.94    2.44
  -3  -1   1  305.12   10.92
  -4   3  -1  286.01    9.08
  -1   4   1  290.13    8.35
  -4   3  -1  294.39   12.03
  -4   3  -1  301.88    7.48
  -4   3  -1  283.37   11.38
  -4   3  -1  280.56   10.75
  -4   3  -1  271.84   10.78
   4  -3   1  293.84   11.17
   3   1  -1  298.24    9.92
  -3  -1   1  290.41    9.26
   1  -4  -1  305.40   10.68
  -1   4   1  298.78   11.08
  -3  -1   1  304.14   11.44
  -1   4   1  288.71   10.50
   1  -4  -1  290.20   10.43
  -1   4   1  295.77    7.39
   1  -4  -1  288.74    8.46
  -1   4   1  302.04    8.95
  -3  -1   1  282.75    8.39
   4  -3   4 3139.82   71.20
   1  -4  -4 3156.18   71.25
  -1   4   4 3142.57   70.72
  -4   3  -4 3131.78   71.54
  -4   3  -4 3164.33   74.03
   4  -3   4 3110.28   70.03
   1  -4  -4 3194.92   71.95
  -4   3  -4 3134.96   73.37
  -4   3  -4 3148.03   74.60
   1  -4  -4 3237.69   75.12
   3   1  -4 3036.34   70.36
  -1   4   4 3273.87   73.94
  -1   4   4 3134.62   72.05
   1  -4  -4 3176.98   71.85
  -3  -1   4 3164.40   73.36
   1  -4  -4 3210.57   69.80
  -3  -1   4 3142.80   71.82
  -4   3  -4 3115.23   70.34
   1  -4  -4 3237.02   71.31
   3   1  -4 3203.85   70.85
   1  -4  -7  200.86    8.74
  -4   3  -7  207.44    8.76
   4  -3   7  199.02    8.38
  -1   4   7  180.50    7.95
  -4   3  -7  193.45    9.34
   4  -3   7  187.14    7.80
   1  -4  -7  200.86    8.73
  -4   3  -7  185.17    8.99
   3   1  -7  204.17    6.87
  -4   3  -7  206.40    9.22
   4  -3   7  205.43    9.73
  -3  -1   7  202.80    8.60
   1  -4  -7  202.46    9.56
  -1   4   7  213.68    9.87
   3   1  -7  183.14    6.57
   3   1  -7  207.91    9.60
  -3  -1   7  192.61    8.74
   1  -4  -7  211.02    7.77
   1  -4  -7  199.66    7.71
   3   1  -7  197.11    8.42
  -4   3  -7  195.30    8.13
   3   1  -7  195.04    8.06
   1  -4  -7  200.43    8.37
  -4   3 -10  344.76   12.98
   4  -3  10  342.29   13.21
  -1   4  10  361.89   13.95
  -3  -1  10  346.07   13.54
   1  -4 -10  360.47   13.05
   4  -3  10  347.65   14.07
   1  -4 -10  378.16   13.66
  -1   4  10  354.14   14.96
   1  -4 -10  369.75   14.12
   3   1 -10  343.87   13.05
   3   1 -10  341.60   13.76
   1  -4 -10  358.33   11.30
  -3  -1  10  373.47   13.15
   1  -4 -10  337.62   13.33
  -3  -1  10  323.62   14.05
  -4   3 -10  374.01   13.51
   4  -3  10  355.19   13.26
  -4   3 -10  393.49   14.49
  -1   4  10  341.09   13.22
  -4   3 -10  334.06   12.89
  -4   3 -13  165.49    8.52
   4  -3  13  162.49    9.74
  -3  -1  13  184.96   10.54
   1  -4 -13  167.94    9.86
   4  -3  13  191.10   10.36
  -1   4  13  205.44   11.00
  -4   3 -13  177.78    8.51
   1  -4 -13  184.57    8.98
  -1   4  13  183.31   11.49
   1  -4 -13  171.88   10.32
   1  -4 -13  177.49    7.49
   3   1 -13  182.53   10.11
  -3  -1  13  182.73    9.02
  -3  -1  13  187.64   11.04
   1  -4 -13  173.69   10.08
  -4   3 -13  172.67    9.90
   4  -3  13  174.81    9.96
  -1   4  13  184.67   10.27
   3   1 -13  178.52    9.74
   4  -3  16  127.60    9.85
  -1   4  16  148.89   10.59
  -4   3 -16  164.92    7.63
   1  -4 -16  156.81    7.92
   4  -3  16  155.49   10.51
  -1   4  16  144.13   10.58
   4  -3  16  149.74    9.56
   1  -4 -16  161.48   10.62
  -1   4  16  163.02   12.19
   1  -4 -16  157.32   10.79
   1  -4 -16  156.85    7.37
   3   1 -16  150.01    9.73
  -3  -1  16  148.00    8.70
  -4   3 -16  150.75   10.88
   1  -4 -16  152.66   10.44
  -4   3 -16  149.30   10.25
  -3  -1  16  158.22   11.39
   3   1 -16  149.95   10.15
   3   1 -19   12.93    5.41
   3   1 -19   17.68    3.36
  -3  -1  19   15.17    6.51
   1  -4 -19    7.37    2.94
  -4   3 -19   10.47    6.29
  -3  -1  19   23.87    5.65
  -1   4  19    8.16    6.18
   4  -3  19   14.54    6.31
   1  -4 -19   13.98    3.42
   4  -3  19   14.43    5.01
  -3  -1  22  462.89   23.40
   4  -3  22  497.73   22.83
  -1   4  22  482.65   23.24
  -4   3 -22  521.12   22.45
   1  -4 -22  449.36   14.19
   4  -3  22  495.31   18.86
   3   1 -22  463.00   19.49
   3   1 -22  486.43   19.41
   4  -3  25   12.04    6.32
   3   1 -25   -0.82    6.63
   1  -4 -25    3.22    3.42
   4  -3  25    7.59    7.86
  -3  -1  25    1.39    8.56
  -1   4  25   -5.31    8.77
  -4   3 -25   11.14    8.68
   3   1 -28   -0.81    6.79
  -1   4  28   -2.92    9.48
  -3  -1  28    1.52    9.89
   4  -3  28    6.98    9.98
  -4   3 -28    3.51    8.53
  -4   3 -31   50.19   11.17
  -2   4 -30  146.11   14.37
   2   2  30  140.83   12.10
  -4   2  30  136.44   16.03
   2  -4  30  162.51   17.06
  -2   4 -27  163.90   14.16
   2  -4  27  137.39   14.55
  -4   2  27  135.03   14.95
   2   2  27  136.79   15.15
   4  -2 -27  140.28   15.66
  -2  -2 -27  151.26   11.58
  -2   4 -24   -2.17    7.51
  -2  -2 -24   -3.00    5.78
  -4   2  24   -1.23    7.77
   2  -4  24    6.14    7.69
   2   2  24    1.33    7.69
   4  -2 -24   -4.21    8.04
   4  -2 -24   -0.69    5.48
  -2   4 -21  710.92   26.34
   2  -4  21  656.67   26.41
  -4   2  21  645.53   26.21
   2   2  21  583.60   26.04
  -2  -2 -21  613.44   15.62
  -4   2  21  624.76   16.46
  -2   4 -21  618.98   17.13
   4  -2 -21  617.63   21.19
   4  -2 -18 2745.34   67.19
   4  -2 -18 2749.04   74.52
  -2   4 -18 2952.84   73.55
   2  -4  18 2794.25   73.14
  -4   2  18 2803.09   73.23
   2   2  18 2778.26   74.00
  -4   2  18 2782.18   63.81
  -2   4 -18 2856.48   65.16
   2   2  18 2779.76   64.50
  -4   2  18 2798.03   64.50
  -4   2  15   99.43    5.46
   2   2  15   93.07    8.50
  -4   2  15  111.54    6.58
   2  -4  15  122.78    6.95
  -4   2  15   81.25    7.93
   4  -2 -15  106.31    6.28
   4  -2 -15  110.52    8.69
   4  -2 -15  113.20    9.51
  -2   4 -15  127.57    9.84
   2   2  15   99.49    8.57
   2  -4  15  117.79    8.94
   4  -2 -15  107.71    8.65
  -4   2  15  119.85    9.23
   2  -4  15  114.21    9.08
  -2  -2 -15  108.74    8.78
   2   2  12  101.74    7.70
  -2  -2 -12   98.13    7.60
   2  -4  12  103.82    6.52
  -4   2  12   97.09    6.44
  -4   2  12   99.57    5.46
  -2   4 -12   91.86    5.46
  -4   2  12   91.98    7.44
  -2  -2 -12   91.46    8.34
   4  -2 -12  103.68    4.85
   4  -2 -12  102.49    7.74
  -4   2  12   98.23    7.58
   2  -4  12  100.03    7.58
  -4   2  12   92.10    4.34
   2  -4  12   93.66    7.25
   2   2  12   96.96    7.54
   4  -2 -12   99.87    7.41
   2   2   9  349.34   13.61
   2  -4   9  387.16   13.67
  -4   2   9  353.83   13.45
  -2  -2  -9  335.13   13.43
   4  -2  -9  351.51   12.93
  -2   4  -9  364.86   11.85
  -4   2   9  371.13   11.88
   2  -4   9  373.81   14.55
   2   2   9  364.03   15.94
  -2  -2  -9  356.58   14.78
   4  -2  -9  364.16    9.32
  -4   2   9  351.68   13.64
  -2   4  -9  361.96   14.83
  -4   2   9  360.09   10.45
   4  -2  -9  350.95   13.80
  -4   2   9  351.79   13.27
   2  -4   9  362.95   13.37
   4  -2  -9  368.89   13.67
   2   2   6    5.34    2.70
   2  -4   6    5.89    3.00
   4  -2  -6    7.91    2.51
   2  -4   6    7.58    2.75
  -2   4  -6    9.22    2.53
  -4   2   6    3.59    2.43
   4  -2  -6    8.47    2.75
  -2  -2  -6    4.86    2.76
  -2  -2  -6    2.08    2.59
  -4   2   6    3.35    2.07
   2  -4   6    5.01    2.13
  -2   4  -6    5.39    2.81
  -4   2   6    6.39    1.87
  -4   2   6    1.29    1.85
   4  -2  -3  216.32    9.70
  -2   4  -3  219.51    9.23
   2   2   3  211.57    8.54
  -2  -2  -3  216.45    8.74
  -4   2   3  196.60    8.49
   4  -2  -3  205.77    8.41
  -4   2   3  224.61    8.72
   4  -2  -3  208.68    8.81
   2   2   0 5826.54  131.99
  -2  -2   0 6004.88  131.27
  -2   4   0 6083.68  132.37
   4  -2   0 6045.20  132.85
   2  -4   0 5843.81  131.86
  -2  -2   0 6085.80  133.09
  -2   4   0 5896.00  131.91
  -4   2   0 5800.95  133.51
   4  -2   0 5739.27  133.93
   2  -4   0 5897.78  134.37
  -4   2   0 5978.99  131.44
  -2   4   0 6097.18  131.04
  -4   2  -3 2454.83   58.29
   2  -4  -3 2490.31   59.09
   4  -2   3 2386.77   55.94
   2  -4  -3 2420.25   56.28
   2  -4  -3 2449.20   54.89
  -4   2  -3 2421.34   54.79
   4  -2   3 2469.12   58.45
  -4   2  -3 2398.84   57.47
   2   2  -3 2475.38   55.83
  -2   4   3 2404.54   57.03
  -2  -2   3 2373.43   55.24
   2   2  -3 2331.26   58.16
  -2   4   3 2422.47   55.37
  -2  -2   3 2483.79   57.76
   2  -4  -3 2360.54   55.49
  -2  -2   3 2430.48   54.76
  -2   4   3 2441.68   54.72
  -4   2  -3 2393.73   56.19
  -2   4   3 2435.22   53.66
   2   2  -3 2379.90   53.46
  -2   4   3 2469.07   55.82
   4  -2   6  238.95   10.47
  -2  -2   6  233.68    8.91
  -2   4   6  232.43    8.84
   2  -4  -6  243.09   10.63
  -2   4   6  244.90    9.03
   2  -4  -6  244.23    9.08
  -4   2  -6  241.00    8.95
   4  -2   6  245.46    9.02
   2  -4  -6  266.95    9.98
   2   2  -6  245.92    8.62
  -2   4   6  240.93    9.94
  -2   4   6  243.01    7.73
  -2  -2   6  252.86   10.19
   2  -4  -6  235.24    7.74
   2   2  -6  237.27    8.61
   2  -4  -6  259.74    8.83
  -2   4   6  240.97    8.68
  -4   2  -6  270.10   10.16
   4  -2   6  257.59    9.71
   2  -4  -6  247.59    9.62
   2  -4  -9  176.76    8.90
  -4   2  -9  174.46    8.87
  -2  -2   9  172.79    8.59
  -2   4   9  181.69    8.76
  -2   4   9  196.13    9.61
   4  -2   9  178.29    8.58
  -2   4   9  183.76    8.72
   4  -2   9  169.42    9.46
   2   2  -9  189.38    5.45
   2  -4  -9  183.65    8.77
   2  -4  -9  162.31    8.58
  -2  -2   9  196.64    9.76
   2   2  -9  181.14    9.61
  -2  -2   9  208.48    9.24
   2  -4  -9  190.46    5.87
  -4   2  -9  177.04    8.52
   2  -4  -9  192.54    8.87
   4  -2   9  190.44    8.99
   2   2  -9  192.16    8.43
   2  -4  -9  179.27    8.24
   4  -2   9  185.97    8.91
  -2   4   9  200.85    8.99
  -4   2  -9  183.14    9.27
   2  -4 -12 1162.98   31.19
  -4   2 -12 1169.35   30.78
   4  -2  12 1113.46   33.21
  -2   4  12 1152.95   32.84
   4  -2  12 1157.55   32.90
  -2   4  12 1231.63   34.20
   2  -4 -12 1149.37   32.05
   2   2 -12 1151.67   31.79
   2  -4 -12 1137.90   31.89
   2  -4 -12 1148.83   26.14
   2   2 -12 1161.22   33.40
  -2  -2  12 1168.18   31.75
  -4   2 -12 1194.38   32.51
  -2  -2  12 1181.84   34.14
   2  -4 -12 1137.06   32.32
   4  -2  12 1111.01   32.42
  -4   2 -12 1165.10   33.84
  -2   4  12 1069.44   32.01
   2  -4 -12 1131.38   33.15
   2  -4 -15   67.62    5.33
  -2  -2  15   58.30    6.25
  -4   2 -15   60.89    5.07
   2  -4 -15   52.44    6.66
  -4   2 -15   47.78    6.36
   2  -4 -15   59.34    2.55
   2   2 -15   63.05    6.91
   4  -2  15   64.54    6.93
   2   2 -15   38.37    5.96
   2  -4 -15   55.40    7.06
   2  -4 -15   60.04    6.66
  -2   4  15   66.78    7.66
   4  -2  15   56.49    6.83
  -2   4  15   60.29    6.90
  -2   4  15   68.43    7.37
   4  -2  15   64.13    6.97
  -2  -2  15   77.53    7.83
   2  -4 -15   60.28    2.71
   2  -4 -18 4160.79   94.11
  -2   4  18 4256.21   85.22
   4  -2  18 4073.47   95.81
  -2   4  18 4061.89   95.85
   4  -2  18 4289.98   93.54
  -2  -2  18 4084.07   97.20
   2  -4 -18 3622.13   82.76
   2   2 -18 4139.92   94.33
  -4   2 -18 4145.90   86.35
  -2  -2  18 4211.20   91.62
  -4   2 -18 4067.22   95.21
   2   2 -21  579.12   15.40
   2   2 -21  651.30   23.89
  -2  -2  21  620.30   26.67
   4  -2  21  615.06   22.25
  -2   4  21  579.82   25.06
   4  -2  21  596.90   25.35
  -4   2 -21  653.92   24.94
  -2  -2  21  592.93   15.19
   2   2 -24   23.78    7.74
  -2  -2  24   20.15    8.75
   4  -2  24   18.75    6.57
  -2   4  24   28.60    9.12
   4  -2  24    8.73    7.82
  -4   2 -24   23.99    7.96
  -4   2 -27  125.92   12.64
   4  -2  27  111.65    9.85
   2   2 -27  111.91   11.29
  -2   4  27  104.72   13.44
   4  -2  27  120.19   14.17
  -2  -2  27   87.48   13.44
  -4   2 -30   42.16   10.60
  -2   4  30   46.31   12.55
   4  -2  30   44.91   12.35
  -3   4 -31  361.51   21.20
   3  -4  28  177.62   16.27
   1   3  28  155.46   16.34
   4  -1 -28  140.42   15.51
  -4   1  28  165.41   16.52
  -3   4 -28  140.58   13.71
   1   3  25  381.89   22.14
   3  -4  25  430.31   22.17
  -1  -3 -25  427.74   16.85
  -4   1  25  385.07   22.24
   4  -1 -25  392.75   15.35
  -3   4 -25  413.95   20.92
   1   3  22   27.00    8.68
   3  -4  22   26.63    7.90
  -4   1  22   20.16    8.01
   4  -1 -22   16.41    5.09
   4  -1 -22   22.26    5.66
  -3   4 -22   16.88    7.47
  -4   1  19   21.76    3.67
  -1  -3 -19   23.34    3.68
   3  -4  19   23.22    7.11
   1   3  19   28.76    7.30
   4  -1 -19   31.74    5.40
   4  -1 -19   26.82    4.94
  -3   4 -19   23.47    6.75
  -4   1  19   21.77    7.01
  -3   4 -19   30.31    4.26
  -3   4 -16    5.75    3.55
   4  -1 -16    0.71    2.74
  -4   1  16    1.67    3.04
  -4   1  16    2.72    1.69
  -4   1  16    7.91    5.72
  -3   4 -16   -2.81    5.21
   3  -4  16   -0.82    4.29
   1   3  16   -3.62    4.77
   4  -1 -16    1.26    3.17
  -1  -3 -16    4.53    5.99
  -3   4 -16   -2.68    4.44
  -4   1  16    1.40    2.81
   4  -1 -16   -2.88    3.26
   1   3  16    0.78    5.01
   3  -4  16    4.49    5.08
  -1  -3 -16    1.44    4.82
  -4   1  13 1683.03   39.01
  -3   4 -13 1731.79   42.07
   1   3  13 1662.40   44.77
   3  -4  13 1599.95   44.06
  -1  -3 -13 1689.79   46.65
   4  -1 -13 1720.94   39.93
   1   3  13 1708.64   49.25
   4  -1 -13 1685.28   44.37
   4  -1 -13 1648.10   45.46
  -4   1  13 1703.06   40.50
   3  -4  13 1625.47   42.66
   1   3  13 1767.81   46.25
  -3   4 -13 1667.80   41.96
   4  -1 -13 1615.14   41.68
  -4   1  13 1630.31   45.37
   3  -4  13 1702.59   45.35
  -3   4 -13 1594.78   43.62
   4  -1 -10 1109.73   30.23
   3  -4  10 1128.34   30.30
   1   3  10 1108.58   30.83
  -1  -3 -10 1141.86   32.12
  -3   4 -10 1111.23   29.23
  -4   1  10 1128.29   27.51
  -3   4 -10 1095.33   29.72
   3  -4  10 1109.43   30.83
   1   3  10 1084.09   33.67
   4  -1 -10 1130.72   25.28
   4  -1 -10 1102.25   31.08
  -4   1  10 1053.32   27.91
  -3   4 -10 1095.40   29.81
  -4   1  10 1108.31   31.22
   3  -4  10 1098.39   30.77
   4  -1 -10 1090.56   30.55
  -3   4 -10 1103.49   32.85
   4  -1  -7  950.87   26.97
   1   3   7  996.19   26.98
  -1  -3  -7 1006.24   27.65
   3  -4   7  982.63   25.51
   4  -1  -7  962.79   27.89
   3  -4   7 1051.89   28.59
  -3   4  -7  985.77   26.64
  -4   1   7 1009.49   25.50
  -3   4  -7  967.17   27.42
   1   3   7  978.32   29.30
  -1  -3  -7  980.27   28.01
  -1  -3  -7  987.33   27.14
  -4   1   7 1021.12   25.78
   3  -4   7 1015.51   26.48
  -4   1   7  995.25   27.24
  -3   4  -7  957.22   28.95
   4  -1  -7 1034.37   27.35
   4  -1  -4  406.08   14.67
  -3   4  -4  388.89   14.09
   4  -1  -4  399.77   12.70
  -4   1   4  389.98   12.69
  -3   4  -4  396.47   13.19
   1   3   4  382.64   12.64
   4  -1  -4  392.96   13.00
   1   3   4  381.44   14.20
  -1  -3  -4  386.85   13.51
  -4   1   4  376.06   12.44
  -1  -3  -4  382.92   13.44
  -3   4  -4  424.52   14.56
  -1  -3  -4  405.65   13.09
   3  -4   4  408.82   10.66
   3  -4   4  403.73   11.39
  -4   1   1  273.22    8.68
  -3   4  -1  291.32   10.49
  -4   1   1  290.69   10.49
  -1  -3  -1  296.27    9.97
   1   3   1  276.32    9.69
   3  -4   1  313.75   12.34
  -3   4  -1  263.09   11.30
  -1  -3  -1  284.18   10.30
   1   3   1  280.99   11.12
   4  -1  -1  268.10   11.68
  -3   4  -1  302.63   10.81
   4  -1  -1  307.02   10.89
  -4   1   1  278.39    9.78
   3  -4   1  285.25    7.36
  -4   1  -2  262.52    9.82
  -1  -3   2  265.02    9.28
   4  -1   2  270.87   11.31
   4  -1   2  249.10   10.47
  -1  -3   2  245.52    6.99
  -4   1  -2  235.31    9.70
   3  -4  -2  253.49   11.14
  -3   4   2  253.73    9.24
  -1  -3   2  250.08    9.18
  -1  -3   2  252.15   10.14
   1   3  -2  252.82   10.48
  -3   4   2  256.04    8.70
   3  -4  -2  260.16    7.09
  -3   4   2  235.91    8.58
  -3   4   2  246.20    9.33
   3  -4  -5 2125.97   53.67
  -3   4   5 2281.66   53.42
  -3   4   5 2155.18   49.50
  -4   1  -5 2132.70   51.00
   4  -1   5 2131.90   53.94
  -4   1  -5 2136.87   54.18
   1   3  -5 2171.25   51.27
  -3   4   5 2235.97   51.22
   3  -4  -5 2155.09   50.65
  -3   4   5 2114.01   51.45
  -3   4   5 2198.40   48.55
   1   3  -5 2155.83   53.53
  -1  -3   5 2123.10   52.45
   3  -4  -5 2201.04   49.91
  -4   1  -5 2157.58   52.21
  -3   4   5 2116.77   50.92
   1   3  -5 2136.10   49.12
   4  -1   8 2567.90   60.40
  -4   1  -8 2529.86   59.27
  -3   4   8 2448.00   58.44
  -3   4   8 2265.46   59.21
  -3   4   8 2444.79   59.24
   1   3  -8 2518.54   57.92
  -4   1  -8 2409.08   62.99
   3  -4  -8 2529.79   58.37
  -3   4   8 2601.45   59.40
   3  -4  -8 2483.01   58.75
  -1  -3   8 2467.06   60.12
   3  -4  -8 2466.56   58.73
   3  -4  -8 2519.65   60.74
  -4   1  -8 2511.42   60.78
   4  -1  11  502.36   16.69
  -3   4  11  483.07   17.08
   4  -1  11  510.48   17.78
  -3   4  11  466.29   17.28
   1   3 -11  533.52   16.85
   1   3 -11  470.57   11.63
   4  -1  11  490.30   18.86
  -3   4  11  518.81   16.28
  -3   4  11  516.37   17.42
  -4   1 -11  464.42   20.06
   3  -4 -11  505.83   16.25
   3  -4 -11  506.07   16.94
  -1  -3  11  503.02   17.42
   1   3 -11  488.08   18.51
   3  -4 -11  501.42   17.13
  -4   1 -11  522.08   17.57
   3  -4 -11  491.08   16.87
  -3   4  11  504.50   17.51
   4  -1  11  492.33   17.53
  -4   1 -11  461.44   17.94
  -3   4  14  205.66   11.23
   4  -1  14  185.13   10.95
  -3   4  14  197.63    8.32
   4  -1  14  191.56    9.09
   4  -1  14  206.53   11.76
   1   3 -14  162.91    9.91
  -3   4  14  198.16   11.17
  -4   1 -14  177.72   12.84
   3  -4 -14  189.48    9.85
   3  -4 -14  194.28   10.65
   1   3 -14  196.02   11.61
  -1  -3  14  192.35   10.45
   3  -4 -14  167.66   10.30
  -4   1 -14  185.35   10.73
   4  -1  14  179.07   10.95
  -4   1 -14  220.37   12.30
  -3   4  14  187.73   10.86
  -3   4  17  257.42    9.24
   4  -1  17  282.40   14.11
  -3   4  17  265.70   14.12
   3  -4 -17  259.82   12.75
  -4   1 -17  254.79   10.23
   1   3 -17  239.99   12.95
   1   3 -17  266.65   14.34
   3  -4 -17  274.19   13.92
  -1  -3  17  243.70   10.01
  -1  -3  17  258.48   12.98
   4  -1  17  281.27   14.93
  -3   4  17  254.37   14.05
   1   3 -20   95.15    9.91
  -4   1 -20   84.29    4.88
  -1  -3  20   85.95    5.12
   4  -1  20   99.16    9.10
  -3   4  20   97.39   10.15
   4  -1  20   78.42    9.69
   3  -4 -20   86.34    8.80
  -4   1 -23  380.79   19.26
   1   3 -23  395.27   19.46
   4  -1  23  430.09   22.05
  -3   4  23  432.16   21.55
   4  -1  23  390.37   18.04
  -4   1 -26  609.10   25.74
   4  -1  26  614.51   23.49
   4  -1  26  568.49   27.73
  -3   4  26  639.88   28.34
   1   3 -26  640.84   25.85
   4  -1  29   15.21    7.34
   1   3 -29    9.47    8.78
  -4   1 -29   22.78    8.97
  -3   4  29   10.02   10.61
   4  -1  29   16.51   10.34
   3  -4 -29   14.20   10.94
  -4   0  29    3.09   10.77
   0   4  29   -9.24   11.16
   4  -4  29   -2.82    9.63
  -4   4 -29   -7.43    9.54
   4   0 -29   -1.47   10.15
  -4   4 -26   20.22    9.07
   0  -4 -26    9.24    4.62
   0   4  26   24.12   10.40
   4  -4  26   -5.14    9.47
  -4   0  26   20.01    9.44
   4   0 -26   21.78    6.64
   4   0 -23  279.71   14.13
   4   0 -23  285.09   13.39
  -4   0  23  274.54   18.49
   0   4  23  262.27   17.64
   4  -4  23  292.61   17.91
  -4   4 -23  276.67   17.12
   0  -4 -23  297.86   12.14
   0  -4 -20  350.32   12.18
  -4   0  20  367.97   12.38
   4   0 -20  352.24   15.59
  -4   0  20  317.68   18.60
  -4   0  20  339.53   13.70
  -4   4 -20  359.24   18.53
   4   0 -20  327.12   14.02
   4  -4  20  333.15   14.87
   0   4  20  364.59   19.33
   4  -4  20  361.54   18.32
   4  -4  17  153.59    9.36
   0  -4 -17  134.62   10.10
   4   0 -17  131.92    7.77
   0  -4 -17  142.57    7.92
  -4   4 -17  130.41    7.74
   4   0 -17  120.72    7.08
   4   0 -17  144.05    9.42
  -4   0  17  135.78   11.15
  -4   4 -17  141.20   10.11
  -4   4 -17  137.41   11.24
  -4   0  17  137.43    8.01
   4  -4  17  139.63   10.25
   0   4  17  129.71   10.79
   4  -4  17  145.62   10.60
   0  -4 -14 3260.91   76.34
  -4   0  14 3063.94   77.10
   0   4  14 3082.41   75.96
   4  -4  14 3189.42   76.02
   0   4  14 3103.91   77.53
  -4   4 -14 3036.77   73.19
   4   0 -14 3061.78   73.34
   4  -4  14 3121.92   75.09
   4   0 -14 3110.04   71.72
   0   4  14 3116.37   80.43
  -4   4 -14 3170.12   73.09
   0  -4 -14 3080.64   73.55
   0  -4 -14 3139.06   77.66
   0  -4 -14 3084.78   73.11
   4   0 -14 3114.98   75.03
  -4   0  14 3110.46   72.72
   4   0 -14 3002.69   76.65
  -4   4 -14 3167.24   75.43
   4  -4  14 3000.77   76.25
   0  -4 -14 3040.38   76.12
  -4   0  14 3104.61   77.81
   4   0 -14 3150.10   75.82
  -4   4 -11   10.85    4.49
  -4   0  11    7.26    3.36
  -4   4 -11    3.41    3.19
  -4   4 -11    5.41    3.63
  -4   4 -11    4.85    3.27
  -4   4 -11    4.88    3.45
   4  -4  11    7.45    3.62
   4   0 -11    7.39    3.29
   4   0 -11    4.14    1.49
   0   4  11    5.75    4.02
   0   4  11    6.45    3.39
   4  -4  11   -0.50    3.22
   0  -4 -11    4.65    3.62
  -4   0  11    6.77    3.39
   4   0 -11    3.22    3.57
   0  -4 -11    2.63    3.43
   0  -4 -11    0.85    2.84
  -4   0  11    4.52    3.10
   0  -4 -11    7.41    3.97
   4  -4  11    2.72    3.23
   0  -4  -8  896.23   23.40
  -4   4  -8  813.22   24.58
   0  -4  -8  880.72   24.86
   0   4   8  825.45   23.58
   4  -4   8  833.59   22.87
  -4   4  -8  885.39   24.90
  -4   4  -8  821.81   24.00
   4   0  -8  874.65   21.67
   4  -4   8  845.52   25.01
   0   4   8  838.14   26.33
   0  -4  -8  870.07   24.53
   4   0  -8  804.62   19.22
  -4   0   8  845.06   25.18
   4   0  -8  798.96   23.60
   0  -4  -8  837.07   23.47
  -4   0   8  839.40   23.43
  -4   4  -8  856.54   22.88
   4  -4   8  850.16   23.20
  -4   4  -8  865.73   26.74
  -4   0   8  814.92   24.22
   4   0  -8  854.08   24.25
   0  -4  -5  420.40   11.88
   4  -4   5  428.67   12.27
   0  -4  -5  437.98   13.87
  -4   4  -5  426.66   12.72
   0   4   5  422.74   13.31
  -4   4  -5  415.67   15.38
   4  -4   5  434.92   16.36
  -4   4  -5  420.61   15.06
   4   0  -5  409.29   13.16
  -4   4  -5  417.83   14.49
   0  -4  -5  445.33   14.32
   4  -4   5  420.75   11.94
   4   0  -5  439.22   11.07
   0   4   5  458.14   15.80
   0  -4  -5  431.17   14.89
   0  -4  -5  430.86   12.32
   4   0  -5  422.30   13.56
   0  -4  -5  410.91   13.98
  -4   0   5  393.90   13.98
  -4   4  -5  412.99   11.86
  -4   0   5  419.57   14.05
  -4   4  -5  443.71   16.00
  -4   0   2 1535.97   37.96
   4  -4   2 1466.04   33.75
   0   4   2 1496.65   35.38
  -4   4  -2 1471.90   39.01
   4   0  -2 1529.58   35.74
   4   0  -2 1413.64   35.94
   0  -4  -2 1455.34   33.75
  -4   4  -2 1503.43   37.65
   4   0  -2 1482.73   37.29
   0   4   2 1541.78   38.35
   0  -4  -2 1547.13   37.60
  -4   0   2 1456.10   34.07
   0  -4  -2 1418.32   37.11
  -4   4  -2 1467.00   38.01
  -4   0   2 1464.71   35.34
   0   4   2 1489.60   37.81
  -4   4  -2 1430.73   38.31
   0  -4  -2 1446.47   35.52
  -4   4  -2 1507.48   34.01
   0   4  -1   -0.12    0.98
  -4   4   1   -0.40    2.36
  -4   0  -1    1.14    1.93
   0  -4   1    3.00    2.42
  -4   0  -1    0.95    2.14
   0  -4   1    1.32    1.60
  -4   0  -1    1.77    2.25
  -4   4   1    0.46    1.04
   0   4  -1    3.37    2.45
  -4   4   1    1.43    2.09
   4  -4  -1   -1.26    2.19
  -4   4   1   -1.08    2.89
   4   0   1    2.52    2.33
  -4   4   1    1.25    2.46
  -4   0  -4 2763.02   64.92
  -4   4   4 2706.55   60.33
   0   4  -4 2709.91   60.09
  -4   4   4 2782.05   65.16
   4  -4  -4 2683.51   66.90
  -4   0  -4 2689.22   64.89
  -4   4   4 2595.26   62.27
  -4   4   4 2730.35   64.05
   0  -4   4 2710.05   64.88
   0   4  -4 2797.04   66.04
   4  -4  -4 2747.89   60.37
  -4   4   4 2746.82   61.55
  -4   4   4 2737.42   63.76
  -4   0  -7 1178.54   33.37
  -4   0  -7 1151.84   32.16
   4  -4  -7 1148.17   28.54
  -4   4   7 1143.03   29.11
  -4   4   7 1149.49   30.94
   0   4  -7 1176.48   33.09
  -4   4   7 1157.03   26.01
   0  -4   7 1162.59   31.87
  -4   4   7 1092.77   30.78
  -4   0  -7 1163.11   30.85
   0   4  -7 1158.41   28.87
  -4   4   7 1162.93   31.87
   4  -4  -7 1164.79   29.08
  -4   4   7 1128.24   29.27
   4   0  10  342.64   13.29
  -4   4  10  299.80   11.77
  -4   0 -10  316.91   12.85
  -4   0 -10  322.46   13.95
  -4   0 -10  275.19   14.34
  -4   4  10  294.73   11.41
   4  -4 -10  313.16   10.83
  -4   4  10  333.97   12.79
  -4   4  10  304.55   12.81
   0   4 -10  303.17   11.70
  -4   4  10  305.73   12.18
   0  -4  10  300.22   13.10
   4  -4 -10  307.43   12.02
   0  -4  10  318.17   13.49
   4  -4 -10  275.02   12.15
   0   4 -13    4.62    1.69
  -4   4  13    4.52    3.91
  -4   0 -13    1.28    4.25
   4   0  13    2.20    3.73
  -4   4  13    0.56    3.42
   4  -4 -13   10.99    3.22
  -4   0 -13   12.01    5.64
  -4   4  13    6.60    3.48
   0  -4  13   11.18    3.50
  -4   0 -13    8.11    4.08
   0   4 -13   14.00    4.77
   0  -4  13    6.73    4.12
   4  -4 -13   11.05    4.49
  -4   4  13    9.73    3.50
   4   0  13    7.18    3.41
   0  -4  13    4.57    4.18
   4  -4 -13    6.13    4.11
   0   4 -13    3.34    3.48
  -4   4  13    7.77    4.17
  -4   0 -16  810.97   28.96
  -4   4  16  765.40   22.56
   4  -4 -16  794.26   23.77
   0  -4  16  795.39   23.07
  -4   4  16  770.48   26.62
   4   0  16  763.26   27.38
   0   4 -16  731.70   27.36
   0  -4  16  770.28   27.67
   4  -4 -16  829.69   26.30
   0  -4  16  772.90   26.02
  -4   4  16  781.55   27.60
   0   4 -16  801.39   25.68
   4   0  16  810.16   23.45
   0   4 -19  446.85   20.51
   0  -4  19  418.38   14.25
  -4   0 -19  415.64   14.29
  -4   4  19  440.81   19.94
   4   0  19  429.75   20.50
   4  -4 -19  446.52   17.16
   4   0  19  416.61   19.20
   4   0  19  447.90   14.79
   0  -4  19  456.30   21.20
   0  -4  22 1398.10   32.91
   4   0  22 1443.14   42.37
  -4   4  22 1302.59   43.27
   4   0  22 1386.52   45.24
   0  -4  22 1392.19   45.43
   0   4 -22 1402.80   43.79
   4  -4 -22 1321.46   39.27
   4   0  25  137.22   14.20
  -4   4  25  127.56   12.79
   0  -4  25  133.55   14.41
   0   4 -25  132.89   12.90
  -4   0 -25  126.45   12.28
   4   0  25  123.90   11.56
   4   0  28  296.98   16.55
  -4   0 -28  311.91   17.75
  -4   4  28  261.16   19.66
   4   0  28  242.14   19.53
   0  -4  28  294.46   20.65
   0   4 -28  263.64   17.75
   0   4 -31   28.12   10.26
  -4   0 -31   27.09    9.53
   4   1  30  428.62   21.06
  -1   5 -30  439.75   23.95
  -4  -1 -30  450.61   21.37
  -4  -1 -27   84.24   10.86
  -1   5 -27   76.44   11.86
   4   1  27   92.88   11.34
   5  -4 -27   66.56   13.76
  -5   4  27   76.22   12.47
   4   1  27   77.01   13.20
   1  -5  27   72.14   13.13
  -5   4  24  607.56   27.16
   4   1  24  654.35   29.41
   1  -5  24  658.01   28.86
  -1   5 -24  641.15   27.71
   4   1  24  661.29   26.56
   5  -4 -24  648.15   30.11
   5  -4 -21 1276.84   43.11
  -1   5 -21 1241.64   41.19
   4   1  21 1235.09   32.19
  -5   4  21 1212.95   33.11
   5  -4 -21 1251.51   34.32
  -5   4  21 1182.45   39.49
   1  -5  21 1270.96   41.62
   1  -5  21 1192.78   32.08
   4   1  18 1087.77   30.09
   5  -4 -18 1092.28   29.41
   5  -4 -18 1113.51   36.81
  -1   5 -18 1068.51   36.22
  -5   4  18 1004.50   33.94
   1  -5  18 1057.17   35.71
  -4  -1 -18 1061.23   36.81
  -5   4  18 1063.53   29.34
   1  -5  18 1056.80   29.93
  -5   4  18 1037.19   35.53
  -1   5 -15  242.66    8.51
  -5   4  15  255.81   11.47
   1  -5  15  214.53   10.97
  -4  -1 -15  241.89   14.16
   5  -4 -15  243.51    9.69
   5  -4 -15  236.69   13.82
   5  -4 -15  259.89   12.79
  -1   5 -15  231.75   14.11
  -1   5 -15  230.30   12.07
  -5   4  15  236.11   13.20
   4   1  15  221.22   11.02
   1  -5  15  239.15   13.56
  -5   4  15  238.98   12.96
  -4  -1 -12 1506.12   43.08
   4   1  12 1544.66   41.85
  -5   4  12 1526.54   40.33
   1  -5  12 1570.45   41.01
  -5   4  12 1566.80   39.48
  -1   5 -12 1562.71   36.80
  -5   4  12 1506.41   38.25
  -4  -1 -12 1477.38   43.89
  -4  -1 -12 1491.89   41.07
   5  -4 -12 1546.73   36.52
   5  -4 -12 1552.00   42.89
   5  -4 -12 1463.40   39.68
   1  -5  12 1488.09   41.88
   1  -5  12 1435.31   41.55
  -5   4  12 1456.42   40.57
   5  -4 -12 1487.96   41.01
  -5   4  12 1431.99   41.53
  -1   5 -12 1510.33   39.87
  -4  -1  -9  859.82   27.34
   4   1   9  867.21   26.45
  -5   4   9  902.94   26.83
  -5   4   9  916.16   25.93
   1  -5   9  912.70   27.34
  -4  -1  -9  889.13   26.23
  -5   4   9  861.87   25.26
  -5   4   9  880.55   22.97
  -4  -1  -9  879.72   28.11
  -5   4   9  843.20   26.17
   5  -4  -9  885.38   27.55
  -1   5  -9  914.05   28.81
  -5   4   9  875.79   20.20
  -5   4   9  828.85   24.63
   1  -5   9  886.96   26.35
  -1   5  -9  877.62   24.51
   1  -5   9  908.23   27.32
  -5   4   9  863.72   20.22
  -4  -1  -6  280.87   12.24
   4   1   6  259.66   11.39
  -5   4   6  275.07   12.49
  -4  -1  -6  279.26   11.42
  -5   4   6  258.82   11.55
  -5   4   6  261.91    8.82
  -5   4   6  265.74   11.22
  -1   5  -6  284.17   12.78
  -5   4   6  267.80    9.43
  -5   4   6  240.22   10.74
  -4  -1  -6  278.50   12.08
   4   1   6  286.91   13.78
   1  -5   6  250.00   11.74
   1  -5   6  239.24   12.04
   5  -4  -6  264.91   11.86
  -5   4   6  256.67   11.12
   4   1   3 3131.50   73.49
   5  -4  -3 3194.95   72.93
  -4  -1  -3 2988.33   70.99
  -5   4   3 2973.17   68.52
  -5   4   3 3094.62   71.64
  -1   5  -3 3151.91   73.15
  -5   4   3 3051.82   71.52
   4   1   3 3052.29   71.54
  -4  -1  -3 3033.86   72.56
   1  -5   3 2986.93   68.12
  -5   4   3 2972.42   66.73
   4   1   0  222.06    9.45
  -5   4   0  222.54    9.88
   1  -5   0  213.25    7.28
  -1   5   0  224.00   10.06
  -4  -1   0  214.08    8.43
  -4  -1   0  207.08    7.38
  -1   5   0  221.50    7.44
   1  -5   0  210.12    9.69
  -1   5   0  224.76    9.98
  -5   4   0  239.62   10.90
  -5   4   0  215.14   11.13
  -5   4   0  214.14    9.87
  -5   4   0  228.46    7.87
  -4  -1   0  203.37    9.79
  -5   4  -3   49.11    3.62
   1  -5  -3   50.57    3.57
  -1   5   3   43.93    3.21
   5  -4   3   44.43    3.46
  -4  -1   3   44.49    4.65
  -5   4  -3   38.49    5.14
   1  -5  -3   42.17    3.32
  -5   4  -3   47.06    5.72
   4   1  -3   43.23    3.45
   4   1  -3   45.36    3.63
   5  -4   3   42.43    4.89
  -5   4  -3   43.61    4.93
  -4  -1   3   37.33    3.03
   1  -5  -3   43.82    4.69
  -1   5   3   42.61    4.59
  -1   5   3   53.91    4.73
  -5   4  -3   43.03    2.51
  -4  -1   3   36.03    4.52
   1  -5  -3   37.78    4.30
  -4  -1   3   49.54    4.11
   5  -4   6 1699.70   42.56
  -5   4  -6 1762.51   46.39
   1  -5  -6 1828.53   44.04
   5  -4   6 1779.72   41.52
  -5   4  -6 1756.78   45.70
   4   1  -6 1727.76   42.60
  -5   4  -6 1771.55   45.12
   1  -5  -6 1823.48   47.22
  -1   5   6 1771.67   46.42
   4   1  -6 1795.31   41.15
   1  -5  -6 1712.77   42.60
   4   1  -6 1810.05   42.84
   1  -5  -6 1734.83   43.30
  -4  -1   6 1785.32   44.99
  -5   4  -6 1765.83   41.83
   1  -5  -6 1813.14   41.10
  -4  -1   6 1756.78   43.89
   1  -5  -6 1716.60   43.30
  -1   5   6 1763.08   42.51
  -5   4  -6 1771.79   43.24
  -5   4  -9 4444.60  102.23
   1  -5  -9 4423.87  101.06
   5  -4   9 4365.77   99.56
  -4  -1   9 4324.41  101.18
  -5   4  -9 4283.71  101.65
  -5   4  -9 4395.46  101.71
   5  -4   9 4353.37  103.23
   4   1  -9 4339.84   97.10
   1  -5  -9 4466.55  103.01
  -1   5   9 4595.99  104.42
   1  -5  -9 4371.10  102.05
   4   1  -9 4411.70   96.59
   4   1  -9 4261.93   99.95
   1  -5  -9 4388.13  100.18
  -4  -1   9 4304.66  100.69
   1  -5  -9 4254.86   98.89
  -5   4  -9 4382.69   99.59
   4   1  -9 4458.25  100.66
   1  -5  -9 4489.60   98.90
   1  -5  -9 4341.65  101.54
   5  -4   9 4437.91   99.89
  -1   5   9 4332.25   99.82
  -5   4  -9 4377.74  101.08
   4   1 -12  126.97    8.25
   1  -5 -12  128.36    8.43
  -5   4 -12  122.32    8.09
   5  -4  12  107.38    7.92
  -1   5  12  121.42    8.15
   5  -4  12  124.91    8.05
  -5   4 -12  125.43    8.27
   5  -4  12  135.27    9.35
  -1   5  12  119.34    9.59
   1  -5 -12  124.06    7.97
  -4  -1  12  125.10    8.84
   4   1 -12  130.66    5.76
   1  -5 -12  141.08    9.44
   4   1 -12  127.05    9.07
  -4  -1  12  126.47    8.01
   1  -5 -12  139.02    7.15
  -4  -1  12  127.60    9.28
   1  -5 -12  133.61    8.88
  -5   4 -12  132.47    8.24
  -5   4 -12  117.17    9.34
   4   1 -12  130.02    8.34
   1  -5 -12  130.39    8.54
   1  -5 -15 2744.19   66.47
  -5   4 -15 2823.51   65.59
  -1   5  15 2772.64   70.03
   5  -4  15 2661.56   68.29
  -5   4 -15 2615.10   65.63
   5  -4  15 2657.13   68.46
  -4  -1  15 2654.85   69.46
   1  -5 -15 2763.48   67.82
  -1   5  15 2674.44   72.17
   1  -5 -15 2575.36   68.70
   4   1 -15 2743.98   69.07
   1  -5 -15 2665.75   63.41
  -4  -1  15 2711.81   65.90
   4   1 -15 2752.35   67.87
   5  -4  15 2719.28   67.99
  -1   5  15 2772.75   68.37
   1  -5 -15 2818.85   68.97
  -4  -1  15 2684.29   70.52
  -5   4 -15 2730.99   67.45
   4   1 -18    9.14    5.79
   1  -5 -18    0.38    3.41
  -1   5  18   -1.23    6.36
   1  -5 -18    0.53    3.67
  -5   4 -18    7.77    4.06
   4   1 -18    0.49    3.80
  -1   5  18    6.99    6.09
   5  -4  18   -3.63    5.50
  -4  -1  18    1.07    6.23
  -5   4 -18    1.04    6.60
  -4  -1  18   -0.58    4.40
   5  -4  18    7.03    5.51
   4   1 -21   -0.62    4.96
   5  -4  21    3.92    5.57
  -1   5  21    8.11    7.25
   5  -4  21   11.72    7.99
  -4  -1  21    3.73    8.14
   1  -5 -21    7.23    3.82
   4   1 -21   -3.49    6.46
   4   1 -21    0.37    3.51
   1  -5 -21    1.19    3.18
  -5   4 -21   -1.13    6.99
  -4  -1  21   -0.62    5.24
   1  -5 -21    0.43    3.55
  -4  -1  24  793.94   33.36
  -1   5  24  899.44   34.02
   5  -4  24  863.78   32.65
   1  -5 -24  752.45   20.42
  -5   4 -24  858.35   32.24
   4   1 -24  856.29   28.91
   5  -4  24  868.79   27.74
  -5   4 -27  674.40   29.46
  -4  -1  27  748.70   32.84
   4   1 -27  688.18   25.71
  -1   5  27  695.93   31.44
   5  -4  27  643.89   29.71
  -5   4 -30   23.44   10.72
  -2   5 -31  636.12   29.07
  -2   5 -28  240.02   18.28
  -5   3  28  298.25   20.42
   3   2  28  314.82   17.80
  -3  -2 -28  307.63   16.58
   2  -5  28  247.24   19.80
   5  -3 -28  316.67   22.17
  -5   3  25  597.18   26.81
   2  -5  25  572.72   26.70
  -2   5 -25  580.56   25.89
  -3  -2 -25  547.61   22.55
   5  -3 -25  589.31   29.06
   5  -3 -22    7.45    4.81
   5  -3 -22    1.34    7.82
   3   2  22    4.20    3.36
  -2   5 -22   -1.14    7.43
  -5   3  22    3.79    3.44
   3   2  22    8.88    8.32
  -5   3  22    5.62    7.26
   2  -5  22    2.34    7.62
   5  -3 -19  376.16   13.76
   5  -3 -19  354.12   19.22
  -2   5 -19  402.31   19.85
  -5   3  19  368.41   19.43
  -5   3  19  353.76   18.21
   2  -5  19  359.60   18.53
  -5   3  19  388.76   13.20
   2  -5  19  394.40   14.26
  -5   3  19  372.38   13.53
   3   2  19  389.59   13.76
   3   2  19  387.02   19.77
  -5   3  16   73.70    5.74
   2  -5  16   76.65    6.44
  -5   3  16   83.17    6.47
   2  -5  16   88.06    8.35
   5  -3 -16   71.62    4.91
   5  -3 -16   91.58    9.25
  -2   5 -16   98.54    9.89
  -5   3  16   89.28    8.94
  -5   3  16   62.85    7.52
   2  -5  16   89.52    8.90
  -3  -2 -13 3248.74   81.50
   5  -3 -13 3232.52   71.95
   5  -3 -13 3195.73   80.10
   2  -5  13 3165.76   79.08
  -5   3  13 3202.57   78.95
  -5   3  13 3217.81   70.61
   2  -5  13 3228.00   79.72
  -5   3  13 3167.71   74.90
  -2   5 -13 3210.18   74.07
   3   2  13 3214.49   79.00
  -3  -2 -13 3353.80   79.11
   2  -5  13 3317.41   77.47
  -5   3  13 3276.30   77.06
  -5   3  13 3253.76   79.93
  -5   3  10 1132.61   32.13
   2  -5  10 1174.28   32.69
  -2   5 -10 1145.87   29.41
  -5   3  10 1114.49   30.01
   3   2  10 1109.02   32.05
  -3  -2 -10 1133.77   32.14
  -3  -2 -10 1151.48   33.99
   5  -3 -10 1191.99   33.45
  -5   3  10 1125.87   26.76
  -2   5 -10 1148.30   34.25
  -5   3  10 1067.60   31.15
   2  -5  10 1104.71   31.65
   2  -5  10 1127.63   33.10
  -5   3  10 1149.27   32.81
   3   2   7  442.13   15.76
  -5   3   7  423.82   16.46
   2  -5   7  413.35   16.48
  -3  -2  -7  440.74   15.67
   5  -3  -7  455.60   16.45
  -5   3   7  451.79   11.28
  -5   3   7  439.11   14.86
  -3  -2  -7  437.85   16.44
   5  -3  -7  443.80   16.31
  -2   5  -7  444.08   17.06
   2  -5   7  448.50   14.90
  -5   3   7  419.88   14.12
   2  -5   7  424.12   16.35
  -5   3   7  434.97   15.77
   3   2   4  173.77    9.37
   5  -3  -4  172.22    8.82
   3   2   4  174.81    8.47
  -5   3   4  169.01    5.60
  -3  -2  -4  175.44    8.60
  -5   3   4  166.50    8.43
  -2   5  -4  150.87    8.65
  -5   3   4  165.10    8.34
  -5   3   4  178.82    9.23
   5  -3  -4  193.81    9.88
  -5   3   4  167.96    6.64
   5  -3  -1  743.80   22.41
  -2   5  -1  746.78   20.22
  -3  -2  -1  747.40   17.78
   2  -5   1  733.97   17.34
   3   2   1  725.06   21.89
  -2   5  -1  786.91   22.46
  -3  -2  -1  738.35   20.96
  -3  -2  -1  773.75   23.00
  -2   5  -1  803.47   22.47
   2  -5   1  756.82   22.13
   2  -5   1  717.48   24.25
  -5   3   1  729.73   24.01
   5  -3  -1  791.47   24.26
  -5   3   1  783.32   20.80
   5  -3   2    4.39    2.23
  -2   5   2    0.75    1.00
  -5   3  -2    4.40    3.25
  -5   3  -2    0.34    1.73
   5  -3   2    0.63    2.82
   2  -5  -2    2.64    2.72
  -5   3  -2    1.27    3.49
  -5   3  -2    0.48    2.75
   5  -3   2    4.33    2.40
  -2   5   2    1.17    1.99
   2  -5  -2   -0.34    1.94
  -2   5   2    3.83    2.50
  -3  -2   2    0.29    1.84
   3   2  -2    1.84    1.98
   2  -5  -2    2.55    1.25
  -2   5   2    0.39    1.95
  -3  -2   2    0.51    3.06
   2  -5  -2   -0.77    2.71
  -5   3  -2    3.46    1.51
  -2   5   2    3.33    1.30
  -3  -2   2    1.63    1.70
   5  -3   5 2144.20   49.96
  -5   3  -5 2058.00   52.42
   2  -5  -5 2083.45   49.62
   2  -5  -5 2196.57   54.09
  -5   3  -5 2097.73   53.45
  -5   3  -5 2079.45   51.93
  -5   3  -5 2088.35   50.41
  -2   5   5 2068.43   48.04
   2  -5  -5 2022.37   50.13
   3   2  -5 2014.31   49.08
   2  -5  -5 2067.87   51.07
  -2   5   5 2124.11   52.12
   3   2  -5 2134.06   48.10
  -2   5   5 2083.87   49.57
   2  -5  -5 2115.60   49.42
  -3  -2   5 2137.77   52.03
  -3  -2   5 2100.19   49.47
   2  -5  -5 2068.04   48.14
  -2   5   5 2077.91   48.63
  -5   3  -5 2116.09   48.68
  -3  -2   8 3733.26   84.85
  -5   3  -8 3652.66   86.26
  -2   5   8 3579.02   83.40
   5  -3   8 3735.91   84.87
  -5   3  -8 3593.02   85.56
   3   2  -8 3646.06   81.72
   2  -5  -8 3650.48   87.25
  -5   3  -8 3705.45   86.86
   2  -5  -8 3791.09   84.65
   5  -3   8 3615.20   83.90
  -2   5   8 3655.86   86.89
   3   2  -8 3647.42   82.64
   2  -5  -8 3546.30   85.40
   3   2  -8 3601.32   87.40
   2  -5  -8 3647.17   82.11
  -3  -2   8 3744.18   85.87
   2  -5  -8 3720.66   83.19
   3   2  -8 3619.77   83.82
  -5   3  -8 3670.75   83.96
   3   2  -8 3615.95   83.35
   2  -5  -8 3721.57   85.06
   5  -3  11  180.28    9.43
  -2   5  11  173.79    9.65
  -5   3 -11  208.27   10.08
   2  -5 -11  172.10    9.72
   3   2 -11  176.11    5.18
   5  -3  11  191.81   11.08
  -3  -2  11  178.96    9.83
  -2   5  11  212.91   11.36
   3   2 -11  175.51    7.66
   2  -5 -11  183.78    9.86
   2  -5 -11  187.68    9.10
   3   2 -11  173.00    8.93
  -3  -2  11  165.77    9.44
   3   2 -11  181.34   10.57
   2  -5 -11  185.98    6.84
   2  -5 -11  188.45    9.94
  -2   5  11  172.92    9.30
  -5   3 -11  197.46   10.60
   5  -3  11  170.20    9.50
   2  -5 -11  175.11    9.50
  -5   3 -11  180.58    9.39
  -3  -2  11  177.35   10.53
  -5   3 -14   13.96    4.19
   2  -5 -14   10.98    4.00
   5  -3  14    2.35    4.31
  -5   3 -14    1.28    4.63
  -3  -2  14    5.12    4.89
   2  -5 -14    3.03    4.00
  -2   5  14    5.25    4.82
   2  -5 -14    6.08    4.80
   3   2 -14    3.94    4.39
   2  -5 -14    0.92    1.96
  -3  -2  14    3.50    4.22
   2  -5 -14    4.32    4.34
   3   2 -14    1.21    4.37
   5  -3  14    0.67    4.38
  -2   5  14    1.31    4.38
  -5   3 -14    0.81    4.38
  -2   5  14    8.82    4.49
   2  -5 -14    1.34    4.67
   5  -3  14    2.83    4.75
  -5   3 -17  760.38   21.76
   2  -5 -17  745.51   22.52
   5  -3  17  710.87   25.29
  -2   5  17  742.64   28.11
  -2   5  17  740.40   26.47
   5  -3  17  743.40   26.16
  -2   5  17  735.05   25.20
   2  -5 -17  761.72   27.52
   3   2 -17  718.34   25.86
   2  -5 -17  683.68   16.93
  -5   3 -17  699.66   24.65
  -3  -2  17  680.30   26.93
   2  -5 -17  742.65   25.20
  -5   3 -17  741.02   27.14
   2  -5 -17  700.86   16.79
  -3  -2  17  740.35   23.77
   2  -5 -17  764.71   25.83
   2  -5 -20   81.13   10.58
   3   2 -20   85.05    9.53
  -5   3 -20   89.76   10.16
  -3  -2  20   75.52    8.05
  -5   3 -20   90.01    6.16
  -3  -2  20   91.02   11.14
   5  -3  20   73.46    8.69
   5  -3  20   82.95    9.92
  -2   5  20   74.35    9.79
  -2   5  20   90.19    5.47
   2  -5 -23  312.66   19.48
   3   2 -23  326.05   17.42
  -3  -2  23  292.34   19.41
   3   2 -23  342.48   16.73
  -3  -2  23  306.95    9.80
  -5   3 -23  345.75   19.02
  -2   5  23  332.74   19.42
   5  -3  23  337.92   19.35
   5  -3  23  353.97   16.71
   3   2 -26 1370.00   42.99
  -3  -2  26 1395.02   48.72
   5  -3  26 1468.73   41.85
  -5   3 -26 1406.58   46.03
   2  -5 -26 1385.75   48.49
  -2   5  26 1487.43   48.58
   5  -3  26 1437.66   47.71
  -5   3 -29   11.23    9.67
   5  -3  29   15.91   10.09
  -2   5  29   -1.48   10.60
   2  -5 -29   15.26   10.79
  -5   2  29    7.31   10.91
   3  -5  29    1.42   10.96
  -3   5 -29   11.54   10.39
   5  -2 -29    6.33    9.98
  -3   5 -26 1999.42   60.04
   5  -2 -26 2035.29   63.48
  -2  -3 -26 2086.51   54.66
  -5   2  26 2108.22   62.35
   3  -5  26 2020.03   61.13
   2   3  26 2012.88   63.28
   5  -2 -23  713.70   30.66
  -3   5 -23  752.21   29.50
   2   3  23  765.47   31.36
   2   3  23  681.19   17.65
  -5   2  23  782.64   30.27
   3  -5  23  802.96   30.22
   5  -2 -20  315.10   12.00
   5  -2 -20  303.94   18.16
  -3   5 -20  314.87   17.96
  -5   2  20  313.38   11.77
   2   3  20  267.69   17.21
  -3   5 -20  320.46   12.29
  -5   2  20  335.86   18.20
   3  -5  20  347.52   18.00
  -5   2  20  295.04    9.22
  -2  -3 -20  323.12   11.87
  -3   5 -17  520.24   17.77
   3  -5  17  546.14   21.15
  -5   2  17  547.90   15.54
  -5   2  17  538.37   17.93
   2   3  17  520.87   22.51
   5  -2 -17  526.48   15.50
   5  -2 -17  589.49   23.39
  -3   5 -17  529.52   22.83
   3  -5  17  581.08   22.34
  -5   2  17  560.72   22.70
  -5   2  17  512.34   22.25
  -5   2  17  546.79   15.38
  -2  -3 -14  274.28   14.60
   3  -5  14  304.68   13.79
   2   3  14  265.89   13.67
  -3   5 -14  301.15   11.61
  -5   2  14  283.61   10.28
   5  -2 -14  281.61   11.97
  -5   2  14  284.39   12.58
   3  -5  14  291.24   12.68
   2   3  14  288.16   17.02
   5  -2 -14  282.72    8.25
   5  -2 -14  278.56   14.21
  -5   2  14  293.49    9.76
   5  -2 -14  275.40   13.78
  -5   2  14  277.32   14.03
   3  -5  14  272.48   13.71
  -5   2  14  304.71   14.60
   2   3  11  216.18   11.00
  -2  -3 -11  216.86   11.72
   3  -5  11  196.23    9.94
   5  -2 -11  210.07   10.49
   3  -5  11  210.39   10.90
  -5   2  11  229.99    9.20
  -3   5 -11  219.03    9.61
  -2  -3 -11  223.53   11.32
   2   3  11  216.29   13.23
  -2  -3 -11  229.76   12.50
   5  -2 -11  244.15   11.83
  -5   2  11  219.51    8.23
  -3   5 -11  226.27   12.54
   5  -2 -11  211.59   10.92
   3  -5  11  212.34   10.88
  -5   2  11  218.92   10.97
  -5   2  11  245.09   11.75
   2   3   8 4585.34  106.27
   3  -5   8 4465.93  108.08
   5  -2  -8 4529.89  107.43
  -3   5  -8 4759.59  105.21
  -5   2   8 4641.47  104.59
  -2  -3  -8 4557.23  106.64
   2   3   8 4650.48  110.21
  -2  -3  -8 4556.77  107.69
   5  -2  -8 4631.73  107.19
  -3   5  -8 4766.43  109.47
  -5   2   8 4605.36  103.46
   3  -5   8 4690.60  105.32
  -5   2   8 4679.23  105.88
  -5   2   8 4711.73  107.16
  -2  -3  -8 4590.96  107.36
   3  -5   8 4660.88  104.19
   2   3   5 2923.32   69.96
   3  -5   5 2936.44   72.77
   5  -2  -5 3002.04   72.73
   3  -5   5 3010.69   66.45
  -2  -3  -5 2941.63   70.67
  -5   2   5 2960.95   69.72
  -3   5  -5 3000.36   71.92
   5  -2  -5 3023.94   70.99
  -3   5  -5 3018.27   69.88
   5  -2  -5 3034.84   69.91
  -2  -3  -5 2929.46   70.84
  -2  -3  -5 2949.98   71.29
  -3   5  -5 2998.04   72.26
  -5   2   5 3012.06   70.95
   3  -5   5 2923.66   67.89
  -5   2   5 3062.58   70.01
  -3   5  -2  159.54    7.62
  -3   5  -2  167.80    9.08
   5  -2  -2  149.84    9.06
  -2  -3  -2  156.38    7.81
  -5   2   2  148.86    7.47
  -3   5  -2  171.38    8.45
   3  -5   2  170.52    8.55
  -5   2   2  152.64    7.57
   2   3   2  154.43    7.56
  -2  -3  -2  170.31    8.02
   5  -2  -2  163.25    8.12
  -5   2   2  160.80    8.19
  -5   2  -1 1316.19   33.90
  -2  -3   1 1336.60   34.06
   3  -5  -1 1311.99   36.89
   5  -2   1 1321.67   36.68
   5  -2   1 1334.25   35.47
   3  -5  -1 1340.56   30.75
  -3   5   1 1301.02   35.91
  -5   2  -1 1322.30   34.21
  -2  -3   1 1291.72   33.18
  -3   5   1 1310.52   34.24
   2   3  -1 1314.80   34.11
   2   3  -1 1339.50   36.18
  -2  -3   1 1328.91   35.21
  -3   5   1 1300.95   33.43
  -2  -3   1 1292.11   30.55
  -3   5   1 1341.31   31.97
   3  -5  -1 1322.96   33.91
  -3   5   1 1315.63   33.31
  -5   2  -4  386.02   13.51
  -3   5   4  376.21   10.37
   5  -2   4  384.37   13.11
  -2  -3   4  364.33   11.20
   3  -5  -4  373.02   15.41
   5  -2   4  368.01   14.79
   3  -5  -4  382.55   13.46
  -5   2  -4  399.76   12.26
   3  -5  -4  397.62   11.52
   2   3  -4  361.73   12.78
  -3   5   4  392.05   13.58
   3  -5  -4  353.44   12.79
  -2  -3   4  392.94   14.37
  -3   5   4  393.16   11.92
   2   3  -4  384.47   14.98
  -3   5   4  375.05   11.99
   3  -5  -4  376.33   12.08
   2   3  -4  382.85   10.01
  -3   5   4  375.76   12.87
   2   3  -7 1749.29   42.69
   3  -5  -7 1825.09   43.66
  -3   5   7 1819.42   43.17
  -5   2  -7 1735.30   45.56
   5  -2   7 1856.27   45.25
   5  -2   7 1865.63   47.26
  -5   2  -7 1839.17   44.07
  -3   5   7 1726.64   43.22
   3  -5  -7 1814.97   41.41
  -2  -3   7 1846.20   43.97
  -3   5   7 1785.64   43.99
   2   3  -7 1740.56   43.78
   3  -5  -7 1809.57   44.59
  -3   5   7 1815.14   45.53
  -3   5   7 1746.83   41.20
  -2  -3   7 1820.40   46.02
   3  -5  -7 1817.91   47.38
   3  -5  -7 1837.55   43.71
   3  -5  -7 1772.16   45.42
   3  -5 -10 2576.42   63.90
   5  -2  10 2630.05   62.81
  -3   5  10 2498.19   61.73
   5  -2  10 2654.34   63.02
  -3   5  10 2573.11   61.83
  -5   2 -10 2584.42   64.08
   5  -2  10 2547.98   63.47
   5  -2  10 2523.57   65.38
  -3   5  10 2562.16   63.51
  -3   5  10 2488.49   62.38
   3  -5 -10 2560.47   61.92
   2   3 -10 2493.69   60.86
  -2  -3  10 2623.02   63.24
   2   3 -10 2697.87   65.65
  -5   2 -10 2615.01   62.20
   3  -5 -10 2628.33   62.08
   2   3 -10 2571.92   60.94
   3  -5 -10 2565.37   61.41
   3  -5 -10 2488.41   63.29
  -2  -3  10 2524.37   64.58
   5  -2  13 3388.89   85.26
  -5   2 -13 3498.94   84.98
  -3   5  13 3359.52   82.32
   5  -2  13 3504.70   83.19
  -3   5  13 3542.26   84.18
   3  -5 -13 3304.35   82.08
  -2  -3  13 3377.19   84.75
  -5   2 -13 3426.39   82.43
   3  -5 -13 3566.15   81.95
   3  -5 -13 3467.63   84.02
   2   3 -13 3408.32   85.17
  -2  -3  13 3531.79   82.70
   3  -5 -13 3391.24   82.04
  -5   2 -13 3436.11   81.42
   5  -2  13 3454.30   83.37
  -3   5  13 3403.32   82.75
   5  -2  13 3354.63   81.75
   3  -5 -13 3466.98   81.89
   2   3 -13 3414.13   81.30
  -5   2 -16  347.06   13.46
   3  -5 -16  349.14   14.11
   5  -2  16  341.42   16.55
  -3   5  16  314.22   15.61
   5  -2  16  330.30   16.24
  -3   5  16  353.39   15.94
  -5   2 -16  325.62   16.93
  -3   5  16  328.75   16.45
   3  -5 -16  352.18   15.30
   3  -5 -16  338.23   16.68
   2   3 -16  352.10   16.98
   3  -5 -16  331.08   15.51
  -5   2 -16  362.70   16.24
  -2  -3  16  309.40   16.53
  -2  -3  16  325.30   14.80
  -3   5  16  376.82   12.95
   2   3 -16  327.63   14.91
   3  -5 -16  345.45   15.55
   3  -5 -19  241.00   15.49
   2   3 -19  220.13   14.17
  -5   2 -19  199.83    9.43
   5  -2  19  203.67   13.97
  -3   5  19  239.24   14.52
   3  -5 -19  207.04   12.74
   5  -2  19  187.70   12.94
  -2  -3  19  204.01   14.69
  -3   5  19  223.37    8.85
   3  -5 -22  300.99   19.21
  -2  -3  22  301.52   18.93
   5  -2  22  330.89   16.45
   2   3 -22  312.08   17.38
  -5   2 -22  330.21   18.03
   5  -2  22  312.08   18.28
  -3   5  22  275.54   17.63
  -2  -3  22  284.99   10.37
   2   3 -25  574.98   24.74
  -2  -3  25  567.63   28.36
  -5   2 -25  582.04   25.58
   3  -5 -25  600.52   28.76
   5  -2  25  547.43   26.40
  -3   5  25  542.01   26.09
   5  -2  25  590.17   23.34
  -5   2 -28  113.22   13.19
   2   3 -28  102.54   12.13
   3  -5 -28  126.99   15.74
  -3   5  28  120.68   15.22
   5  -2  28   92.88   13.54
   5  -2  28   97.68   10.60
  -5   2 -31  864.98   33.74
  -4   5 -30   17.11    9.88
  -4   5 -27  123.37   13.85
   5  -1 -27  111.95   14.25
  -5   1  27  127.66   15.27
   4  -5  27   97.32   13.23
   1   4  27  107.27   14.36
   1   4  24    9.60    9.12
  -5   1  24    1.32    8.55
   4  -5  24    5.94    7.56
  -1  -4 -24    6.66    5.30
   5  -1 -24    8.11    8.33
  -4   5 -24    1.21    8.82
  -5   1  21  101.73   11.98
  -5   1  21  100.00    6.67
  -4   5 -21   91.31   10.80
  -1  -4 -21   99.31    6.52
   5  -1 -21   82.84    6.58
   1   4  21   79.04   10.98
   4  -5  21   87.45   10.44
   5  -1 -21   82.41   10.96
   5  -1 -18  866.31   22.94
   5  -1 -18  879.93   30.92
  -5   1  18  867.33   24.18
  -4   5 -18  845.16   31.22
  -5   1  18  863.94   25.54
  -1  -4 -18  868.28   25.23
   1   4  18  869.50   31.28
   5  -1 -18  867.77   24.72
  -4   5 -18  822.61   25.03
   4  -5  18  848.04   29.70
  -5   1  18  838.12   30.75
  -1  -4 -15  477.12   18.46
   1   4  15  498.11   22.80
   5  -1 -15  460.86   12.60
   4  -5  15  466.20   18.33
  -1  -4 -15  511.44   21.09
   1   4  15  492.42   19.35
  -5   1  15  488.89   15.55
  -4   5 -15  474.08   16.96
   5  -1 -15  493.98   17.02
  -5   1  15  441.70   19.34
   4  -5  15  475.77   19.10
   5  -1 -15  454.81   19.38
  -4   5 -15  483.90   18.27
  -1  -4 -12   88.53    7.27
   1   4  12   98.62    7.73
   4  -5  12  103.00    7.15
  -1  -4 -12   67.34    7.38
   5  -1 -12   80.22    6.80
  -4   5 -12   86.60    7.12
   4  -5  12   93.49    7.58
  -4   5 -12   96.32    6.90
  -4   5 -12   79.82    6.68
   1   4  12   89.89    9.00
  -4   5 -12   94.59    7.08
   5  -1 -12   94.72    7.95
  -1  -4 -12   79.10    6.93
  -5   1  12   76.23    5.62
  -5   1  12   88.31    7.72
   4  -5  12   78.65    6.95
  -4   5 -12   89.71    8.65
   5  -1 -12  106.95    8.06
  -1  -4 -12   70.79    7.03
   4  -5   9   56.31    4.74
  -1  -4  -9   56.30    5.93
   1   4   9   56.38    5.48
  -4   5  -9   35.67    5.80
   5  -1  -9   57.80    5.91
   4  -5   9   51.55    6.00
  -4   5  -9   50.79    5.70
  -5   1   9   49.36    5.45
  -4   5  -9   57.88    5.49
   5  -1  -9   64.85    5.70
  -1  -4  -9   51.84    6.10
   1   4   9   63.84    6.89
  -5   1   9   49.96    4.65
   4  -5   9   64.03    5.30
  -1  -4  -9   50.34    5.61
  -1  -4  -9   48.87    5.58
   5  -1  -6  547.09   16.63
  -4   5  -6  536.53   17.44
   4  -5   6  513.97   14.43
  -1  -4  -6  503.62   17.21
   5  -1  -6  539.75   17.41
  -4   5  -6  520.33   19.11
   1   4   6  512.40   19.25
  -1  -4  -6  567.36   18.55
  -5   1   6  559.11   17.04
  -1  -4  -6  513.94   17.61
   5  -1  -6  539.12   19.40
  -4   5  -6  547.71   18.74
   4  -5   6  560.63   19.83
   4  -5   6  499.80   15.20
   1   4   6  527.10   16.82
   5  -1  -3  387.10   15.89
  -4   5  -3  394.17   15.33
  -4   5  -3  383.87   13.99
   5  -1  -3  382.67   13.68
  -1  -4  -3  389.49   13.28
  -1  -4  -3  383.70    9.76
   5  -1  -3  383.73   13.55
  -5   1   3  385.09   10.05
  -1  -4  -3  396.38   14.15
  -5   1   3  363.20   12.69
  -1  -4  -3  396.50   14.41
   4  -5   3  393.81   10.39
  -4   5  -3  411.15   14.95
   4  -5   3  382.62    9.65
  -5   1   3  394.27   14.22
   1   4   3  396.16   12.97
  -1  -4   0 1701.41   43.19
  -4   5   0 1814.56   43.43
   1   4   0 1814.83   45.55
   5  -1   0 1736.47   44.64
  -5   1   0 1730.80   42.62
  -4   5   0 1730.40   43.56
   5  -1   0 1697.13   46.68
  -4   5   0 1750.23   43.55
  -5   1   0 1749.94   41.66
  -1  -4   0 1743.20   42.69
  -5   1   0 1818.38   44.34
   4  -5   0 1760.77   46.92
  -4   5   0 1643.42   45.34
   5  -1   3  868.34   26.71
  -5   1  -3  923.60   25.74
  -1  -4   3  902.00   24.33
  -5   1  -3  876.35   25.32
  -4   5   3  903.87   24.40
   1   4  -3  888.50   25.16
  -4   5   3  886.71   24.83
   1   4  -3  865.30   26.59
  -1  -4   3  878.89   25.79
  -4   5   3  831.97   23.15
  -4   5   3  906.98   24.08
   4  -5  -3  881.42   21.04
   4  -5  -3  904.83   28.09
  -5   1  -6  132.61    7.95
   5  -1   6  125.27    7.48
  -4   5   6  138.73    8.51
   4  -5  -6  155.45    9.40
   5  -1   6  142.57    8.85
   5  -1   6  133.39    8.95
  -5   1  -6  132.44    8.98
  -5   1  -6  132.95    7.18
  -4   5   6  117.01    5.52
  -4   5   6  129.49    6.91
   1   4  -6  124.22    7.21
   4  -5  -6  116.70    6.49
  -4   5   6  117.18    4.94
  -1  -4   6  135.29    8.22
   1   4  -6  131.85    8.63
  -4   5   6  112.29    6.67
   1   4  -6  141.39    5.56
   4  -5  -6  135.98    6.16
  -4   5   6  124.60    7.37
  -5   1  -9  248.41   12.07
   5  -1   9  263.49   11.97
   5  -1   9  269.56   12.43
  -5   1  -9  255.91   11.16
  -4   5   9  252.75   10.18
  -4   5   9  270.98   12.08
   4  -5  -9  253.24   10.41
  -5   1  -9  248.68   13.53
   4  -5  -9  259.05   10.31
  -4   5   9  254.62   10.91
   1   4  -9  242.65   10.79
  -1  -4   9  257.75   12.15
   4  -5  -9  239.75   12.30
  -4   5   9  241.58   11.08
   1   4  -9  251.18    9.72
   4  -5  -9  232.48   10.64
  -5   1 -12  215.40   12.19
   5  -1  12  224.98   11.82
  -4   5  12  244.16   11.74
   4  -5 -12  216.32   11.68
  -4   5  12  242.14   11.32
  -4   5  12  238.82   10.72
   5  -1  12  241.53   11.57
   5  -1  12  217.27   13.00
   1   4 -12  226.84    7.00
  -4   5  12  219.05   10.80
  -5   1 -12  214.99   13.83
  -4   5  12  251.88   11.64
   4  -5 -12  225.72   10.16
  -1  -4  12  219.56   11.58
   1   4 -12  218.56   12.86
  -5   1 -12  249.23   11.77
   4  -5 -12  230.91   11.00
  -4   5  12  227.22   11.78
   1   4 -12  235.84   10.56
   4  -5 -12  255.95   11.53
   5  -1  15    4.10    3.64
  -4   5  15    4.03    3.58
   4  -5 -15    4.00    4.80
   5  -1  15    1.87    5.19
   1   4 -15    4.28    4.27
  -4   5  15    7.43    4.86
   4  -5 -15    1.38    4.69
  -4   5  15    4.49    4.69
   4  -5 -15    4.94    3.70
  -1  -4  15    5.72    5.21
   5  -1  15   14.11    5.44
  -5   1 -15    7.24    5.18
  -4   5  15    8.12    5.02
   1   4 -15    1.88    4.97
  -5   1 -15    8.44    5.17
  -4   5  15    2.17    4.92
   4  -5 -18 1018.28   30.40
   5  -1  18  999.91   33.55
   1   4 -18  966.61   33.92
  -4   5  18  982.98   26.72
  -1  -4  18 1017.58   28.45
  -5   1 -18 1024.30   28.41
   5  -1  18 1008.42   33.96
  -4   5  18  988.67   32.88
  -5   1 -18 1000.15   35.23
   4  -5 -21   -2.28    5.75
  -1  -4  21    1.61    3.78
  -4   5  21   -1.06    6.88
   5  -1  21    3.48    7.21
   4  -5 -21    1.28    7.69
   1   4 -21    4.40    7.05
   5  -1  21    1.95    6.34
  -1  -4  24  107.17   13.74
   5  -1  24  130.80   12.02
   5  -1  24  115.88   13.36
  -4   5  24  108.18   12.68
   1   4 -24  122.90   12.71
   4  -5 -24  130.90   14.73
  -5   1 -24  123.39   12.34
   5  -1  27    1.45    9.87
  -1  -4  27   -1.52   10.58
  -4   5  27    1.33    9.29
   4  -5 -27    1.58   10.53
  -5   1 -27   -3.43    8.68
   1   4 -27    3.53    9.01
   5  -1  27   -1.92    7.38
   1   4 -30   40.09   11.20
  -5   1 -30   37.29   10.67
   5   0 -28  677.32   31.65
  -5   0  28  679.45   31.91
   0   5  28  657.00   31.75
   5  -5  28  700.98   30.50
  -5   5 -28  677.47   30.02
   5   0 -25  351.08   21.26
  -5   0  25  360.44   22.16
   0   5  25  400.59   22.65
   5  -5  25  308.35   19.56
  -5   5 -25  343.78   20.43
  -5   0  22 1968.87   59.00
   5  -5  22 1936.44   56.17
   0   5  22 1943.73   58.19
   5   0 -22 1877.43   57.37
  -5   5 -22 1946.99   57.67
   5   0 -19 1175.19   38.51
   0  -5 -19 1149.53   32.69
  -5   5 -19 1210.65   40.07
  -5   0  19 1185.50   32.74
   0  -5 -19 1181.02   32.87
   5  -5  19 1166.30   37.46
   0   5  19 1228.41   39.79
   5   0 -19 1178.83   30.58
   5   0 -19 1156.95   32.10
  -5   5 -19 1179.03   32.94
  -5   0  19 1212.63   39.91
  -5   5 -16  448.74   16.92
   5   0 -16  489.96   17.33
  -5   5 -16  457.32   16.43
   0  -5 -16  507.51   17.86
   5  -5  16  465.24   19.02
   5   0 -16  437.80   13.48
   0   5  16  470.09   22.55
   5   0 -16  423.27   12.34
   5  -5  16  494.41   18.89
   0  -5 -16  461.23   16.66
  -5   0  16  466.97   16.32
  -5   5 -16  449.23   17.96
  -5   0  16  462.80   20.39
   5   0 -16  469.62   19.63
  -5   0  16  447.57   19.79
   0  -5 -16  445.38   18.21
   5   0 -13    5.85    4.41
  -5   5 -13    0.95    4.72
  -5   5 -13    1.11    3.91
  -5   0  13    0.81    4.38
  -5   5 -13   -0.59    4.28
   0  -5 -13    1.98    4.22
  -5   5 -13    3.48    4.10
  -5   5 -13    4.77    4.40
   5   0 -13    0.69    3.75
   0  -5 -13    2.32    5.00
   0   5  13   -2.05    4.61
   5   0 -13    1.10    1.66
   5   0 -13    1.64    1.30
  -5   0  13   -1.48    3.63
   0  -5 -13    3.11    3.77
   0   5  13   -1.26    4.49
   0  -5 -13    0.81    4.45
   5  -5  13    1.70    3.78
   0  -5 -13    5.46    4.60
   5  -5  13    0.63    3.79
   5   0 -13    0.65    4.60
   0  -5 -13    2.38    4.09
  -5   0  13    3.79    4.26
  -5   5 -10 1438.08   39.74
  -5   5 -10 1442.31   39.88
  -5   5 -10 1493.64   39.48
   0   5  10 1532.83   43.22
   5   0 -10 1445.95   35.72
   0  -5 -10 1447.10   39.55
   5  -5  10 1420.10   37.87
   5  -5  10 1404.38   37.33
   0  -5 -10 1432.24   40.10
   0   5  10 1477.95   38.73
   0  -5 -10 1505.97   38.15
   5   0 -10 1469.86   39.27
  -5   0  10 1499.59   38.45
   0  -5 -10 1488.10   38.48
  -5   0  10 1535.51   41.28
  -5   5 -10 1460.41   37.37
  -5   5 -10 1534.73   43.26
  -5   0  10 1511.43   40.21
   0  -5 -10 1473.27   37.67
   0   5   7 3990.27   90.50
  -5   5  -7 3965.11   93.74
  -5   5  -7 3863.04   92.98
   5   0  -7 3973.73   89.92
  -5   5  -7 3929.10   92.29
   5  -5   7 3967.45   88.78
   0  -5  -7 3903.53   91.60
   0  -5  -7 4059.89   91.92
   5  -5   7 3915.97   88.53
   0   5   7 3746.85   94.65
   0  -5  -7 3961.52   92.95
   5   0  -7 3889.40   91.07
  -5   5  -7 3913.14   88.24
   0  -5  -7 4021.90   89.03
   0  -5  -7 3886.86   91.34
  -5   0   7 3991.89   91.62
  -5   0   7 3858.19   91.83
   0  -5  -7 4015.33   88.24
  -5   5  -7 3973.24   95.26
   0  -5  -4 3026.09   69.67
  -5   5  -4 2999.07   67.53
  -5   5  -4 2971.80   72.64
  -5   5  -4 3002.94   73.35
   5  -5   4 2992.98   66.98
   0   5   4 2930.40   68.79
  -5   5  -4 2967.56   71.54
   5   0  -4 2918.61   70.34
   5  -5   4 2957.85   65.47
   0  -5  -4 3005.73   67.05
   5   0  -4 2975.61   69.87
  -5   0   4 2995.05   66.03
   0  -5  -4 2988.48   71.52
   0   5   4 3134.14   73.42
  -5   0   4 2993.47   71.54
   0  -5  -4 2974.29   71.08
  -5   0   4 3113.70   71.04
   0  -5  -4 2989.16   65.33
  -5   5  -4 3007.53   73.22
  -5   0   4 3003.38   68.99
  -5   5  -1 3376.21   82.50
  -5   5  -1 3329.76   83.08
   5  -5   1 3435.13   85.37
  -5   0   1 3392.43   78.42
   0   5   1 3530.23   82.24
   0  -5  -1 3464.13   81.16
  -5   5  -1 3402.15   81.43
  -5   5  -1 3397.60   81.23
   5   0  -1 3457.93   81.61
  -5   5  -1 3407.13   81.27
  -5   0   1 3519.87   77.71
   0  -5  -1 3457.38   80.78
  -5   0   1 3591.11   82.14
  -5   5  -1 3521.82   76.23
   0  -5  -1 3365.06   78.46
   5   0   2 2132.50   54.41
  -5   0  -2 2092.46   50.27
   0   5  -2 2062.56   47.22
  -5   5   2 2187.78   50.68
  -5   0  -2 2032.58   50.85
  -5   5   2 2005.48   51.92
   0   5  -2 2156.90   54.17
  -5   0  -2 2183.83   53.29
  -5   5   2 2135.07   47.94
   0  -5   2 2108.89   49.94
  -5   5   2 2174.83   51.21
   5  -5  -2 2205.51   56.58
  -5   5   5  139.81    8.62
  -5   0  -5  145.38    7.93
  -5   5   5  140.79    5.18
   5   0   5  141.66    9.52
  -5   0  -5  150.24    8.78
  -5   0  -5  123.00    8.09
   0   5  -5  115.79    7.65
  -5   5   5  140.51    6.77
  -5   5   5  120.65    7.69
   0  -5   5  144.36    8.75
   0   5  -5  154.95    9.48
  -5   5   5  142.34    6.18
  -5   5   5  156.05    9.44
   0   5  -5  132.98    4.89
  -5   5   5  127.98    7.46
   0   5  -8 1322.80   32.98
  -5   5   8 1335.09   37.36
  -5   0  -8 1352.68   36.02
  -5   5   8 1319.39   33.48
  -5   5   8 1370.36   36.76
  -5   0  -8 1287.25   38.16
  -5   5   8 1367.87   34.30
   0   5  -8 1317.34   36.43
  -5   5   8 1351.58   30.41
   0   5  -8 1402.22   39.40
   0  -5   8 1349.52   37.41
  -5   0  -8 1297.37   37.60
  -5   5   8 1277.69   36.03
   5  -5  -8 1352.52   33.46
   5   0  11 3334.32   80.45
  -5   5  11 3405.89   78.65
  -5   5  11 3182.08   77.74
  -5   0 -11 3390.11   79.61
  -5   0 -11 3291.36   81.89
  -5   0 -11 3246.23   83.12
  -5   5  11 3308.76   77.46
   5  -5 -11 3299.77   75.80
   5  -5 -11 3322.81   79.28
   0  -5  11 3356.06   80.78
  -5   5  11 3281.87   79.44
   0  -5  11 3281.15   80.87
   5  -5 -11 3311.67   77.58
   0   5 -11 3231.40   76.91
  -5   5  11 3279.14   80.19
   0   5 -14  287.10    9.02
   5   0  14  281.65   15.85
   0  -5  14  295.10   13.38
  -5   5  14  297.11   13.03
  -5   0 -14  277.27   15.23
  -5   5  14  312.49   13.41
  -5   5  14  292.58   14.52
   0   5 -14  294.55   12.98
   0   5 -14  314.88   16.35
  -5   5  14  276.47   13.43
   5  -5 -14  269.98   13.02
   0  -5  14  296.97   15.07
   5  -5 -14  293.55   11.46
  -5   5  14  292.27   12.30
   5   0  14  291.17   13.25
   5   0  17 1778.06   52.03
  -5   0 -17 1812.80   53.07
  -5   5  17 1786.47   45.72
   5  -5 -17 1846.02   45.66
   0   5 -17 1756.24   52.43
   0   5 -17 1739.89   47.63
  -5   5  17 1773.02   51.35
  -5   5  17 1693.64   49.31
   5  -5 -17 1781.68   48.49
   0  -5  17 1778.99   51.64
   5   0  17 1832.14   46.86
  -5   5  17 1801.76   44.83
   0  -5  17 1759.50   46.37
   5   0  20  945.92   27.90
   0   5 -20 1007.86   35.39
   0  -5  20  948.32   27.62
   5   0  20  954.70   33.64
  -5   5  20  955.48   32.96
   5   0  20 1001.21   35.06
   0  -5  20  965.87   35.05
   5  -5 -20  962.98   28.84
  -5   5  23  179.81   14.65
   5   0  23  192.81   15.82
   0  -5  23  152.06   14.72
   0  -5  23  174.67    8.44
   0   5 -23  199.89   15.57
   5   0  23  139.54   12.55
  -5   0 -26    6.67    8.15
   5   0  26    7.43    8.19
   5   0  26    1.46    9.70
  -5   5  26    3.80    8.77
   0   5 -26    5.06    9.54
   0  -5  26   17.55   10.27
  -5   0 -29 1398.25   45.63
  -5   5  29 1405.80   48.36
   0   5 -29 1461.48   47.71
   5   0  29 1440.52   44.85
   5   1  28   45.88   10.81
  -5  -1 -28   52.95   10.51
  -1   6 -28   17.92   10.25
   1  -6  28   40.79   11.79
  -6   5  28   18.49   10.15
  -6   5  25   15.67    9.30
  -1   6 -25   26.92   10.44
   6  -5 -25   30.72   11.86
   5   1  25   12.78    8.87
   1  -6  25   21.01   10.15
   6  -5 -22 1070.16   40.46
  -1   6 -22 1170.99   40.20
   1  -6  22 1089.41   30.99
   5   1  22 1112.67   31.12
   5   1  22 1063.26   37.78
  -6   5  22 1108.44   37.44
   1  -6  22 1099.72   39.54
   1  -6  19  165.83   10.27
  -6   5  19  161.32    9.72
   6  -5 -19  178.82    8.87
   6  -5 -19  155.23   13.65
  -1   6 -19  168.05   14.15
   1  -6  19  134.32   12.52
  -6   5  19  160.91    9.99
   5   1  19  167.01   10.41
  -6   5  19  150.49   12.01
  -6   5  19  175.11   13.70
  -5  -1 -19  134.64   13.07
  -6   5  16  339.09   14.53
   1  -6  16  332.71   14.91
   5   1  16  309.48   14.75
  -1   6 -16  313.47   10.60
  -6   5  16  311.99   13.93
   6  -5 -16  310.60   11.51
   6  -5 -16  349.53   17.99
  -1   6 -16  325.92   18.33
  -6   5  16  337.31   15.80
   1  -6  16  362.20   17.36
  -5  -1 -16  316.48   17.60
  -6   5  16  300.19   16.37
  -1   6 -16  343.30   14.85
  -6   5  13   44.19    6.25
  -6   5  13   68.37    5.62
  -1   6 -13   45.72    4.60
   1  -6  13   56.90    6.94
  -6   5  13   50.35    6.96
  -6   5  13   59.62    6.47
   6  -5 -13   51.01    7.26
  -6   5  13   66.63    6.79
  -5  -1 -13   49.49    7.29
   1  -6  13   58.18    7.31
  -6   5  13   69.93    7.60
  -1   6 -13   56.18    6.19
  -5  -1 -10  130.76    9.71
   5   1  10  149.91    9.83
  -6   5  10  132.51    9.41
  -6   5  10  149.10    9.15
  -5  -1 -10  146.06    9.54
  -6   5  10  137.07    8.81
   1  -6  10  147.03   10.10
  -6   5  10  129.63    6.74
  -5  -1 -10  136.09   10.25
  -1   6 -10  130.69    7.43
   6  -5 -10  123.01    9.66
  -6   5  10  127.91    3.94
  -6   5  10  124.76    3.90
  -1   6 -10  152.51   10.86
   1  -6  10  137.63    9.21
  -6   5  10  142.00    8.00
  -6   5  10  159.03    9.64
   1  -6  10  126.53    9.70
  -5  -1  -7   48.73    6.02
   5   1   7   39.10    5.43
  -6   5   7   39.92    5.81
   1  -6   7   46.01    6.36
  -6   5   7   46.29    6.67
  -6   5   7   41.24    5.78
  -6   5   7   38.74    3.73
  -5  -1  -7   40.51    6.01
  -1   6  -7   50.95    6.72
  -6   5   7   40.94    3.53
  -1   6  -7   39.33    3.63
  -6   5   7   42.59    5.22
  -5  -1  -7   49.73    5.83
  -6   5   7   31.51    3.65
  -6   5   7   51.51    5.78
   6  -5  -7   43.16    5.77
   5   1   4 2609.53   64.31
   1  -6   4 2547.25   60.55
  -6   5   4 2627.00   66.89
  -6   5   4 2623.30   57.97
  -6   5   4 2636.18   65.64
  -5  -1  -4 2601.48   63.75
  -6   5   4 2778.64   61.29
  -6   5   4 2684.11   64.30
  -1   6  -4 2560.94   66.26
  -6   5   4 2626.14   64.36
  -1   6  -4 2636.88   57.71
  -6   5   4 2580.27   64.34
   5   1   4 2597.55   67.36
   6  -5  -4 2550.59   65.73
  -5  -1  -4 2707.77   65.84
  -5  -1  -1   81.21    5.54
  -1   6  -1   83.38    7.01
  -1   6  -1   79.50    4.27
  -6   5   1   75.66    6.34
  -1   6  -1   71.63    6.70
   1  -6   1   79.02    6.74
  -5  -1  -1   72.47    6.59
   1  -6   1   73.43    4.35
  -6   5   1   71.37    4.49
  -5  -1  -1   68.78    4.48
  -6   5   1   75.08    7.38
   5   1   1   69.23    6.36
  -5  -1   2  195.23   10.10
  -6   5  -2  181.90   11.07
  -6   5  -2  159.68   10.01
   5   1  -2  169.66    9.50
  -6   5  -2  184.85    9.95
   5   1  -2  195.69    8.95
   1  -6  -2  167.64   11.15
  -6   5  -2  190.35    9.99
   1  -6  -2  189.52    9.59
  -1   6   2  173.58    9.94
  -5  -1   2  171.79    7.29
  -5  -1   2  165.85    9.87
   1  -6  -2  166.82    9.02
  -1   6   2  176.29    9.61
  -5  -1   2  174.75    7.09
   1  -6  -2  158.22    7.11
  -6   5  -2  174.57    7.19
  -5  -1   2  165.33    8.36
  -1   6   5   11.80    2.77
   6  -5   5   10.20    2.79
  -6   5  -5   11.29    2.00
  -6   5  -5   10.85    4.71
  -6   5  -5   14.07    5.00
   1  -6  -5   11.88    4.43
  -6   5  -5   10.23    4.04
   5   1  -5   16.44    3.78
   5   1  -5   10.78    2.93
   1  -6  -5   11.32    2.67
  -1   6   5   11.45    4.34
   5   1  -5   17.45    3.04
   1  -6  -5   10.78    3.81
  -5  -1   5   17.06    3.65
  -1   6   5   13.80    3.88
   1  -6  -5    9.62    3.61
  -5  -1   5   15.61    4.41
  -6   5  -5   20.29    3.12
   1  -6  -5   15.21    2.98
  -5  -1   8   42.18    5.76
   1  -6  -8   44.98    5.21
   1  -6  -8   50.66    5.23
  -6   5  -8   49.75    5.00
  -6   5  -8   49.95    6.64
   6  -5   8   41.44    3.99
  -1   6   8   51.86    4.86
   6  -5   8   48.58    4.69
   5   1  -8   50.24    4.48
  -6   5  -8   51.54    6.62
   1  -6  -8   42.99    6.60
  -6   5  -8   50.12    6.72
  -6   5  -8   51.92    6.18
   6  -5   8   45.30    6.25
   5   1  -8   57.52    3.80
  -1   6   8   50.16    6.58
   1  -6  -8   43.21    3.83
   1  -6  -8   45.45    5.48
  -5  -1   8   49.27    5.30
   5   1  -8   58.28    5.16
   1  -6  -8   58.58    5.08
  -6   5  -8   54.42    4.44
  -6   5 -11   16.08    5.39
   6  -5  11   17.63    4.17
  -6   5 -11   15.04    5.79
  -6   5 -11    9.53    4.91
   1  -6 -11   16.29    4.75
   6  -5  11    7.35    4.55
  -6   5 -11   12.54    4.61
   5   1 -11   14.73    2.87
  -5  -1  11   12.11    5.22
  -6   5 -11   12.37    4.08
   5   1 -11   10.12    3.88
   1  -6 -11   20.34    4.47
   5   1 -11   11.16    2.20
  -1   6  11   12.98    5.06
   1  -6 -11   12.84    4.68
  -1   6  11   21.01    4.68
   1  -6 -11   11.32    3.87
  -5  -1  11   20.99    4.93
  -5  -1  11   16.88    4.37
   1  -6 -11   19.29    4.07
   1  -6 -11    9.95    4.35
   6  -5  11   20.06    4.00
  -1   6  14 1247.97   36.46
   6  -5  14 1250.31   36.18
  -6   5 -14 1320.50   36.71
   1  -6 -14 1369.66   38.16
   6  -5  14 1283.95   36.82
   6  -5  14 1257.23   38.77
  -6   5 -14 1258.83   40.94
  -1   6  14 1351.03   41.90
  -5  -1  14 1339.16   40.18
  -6   5 -14 1246.03   35.83
   5   1 -14 1281.46   31.12
   1  -6 -14 1274.91   37.30
   5   1 -14 1357.78   37.63
  -5  -1  14 1350.83   36.31
   1  -6 -14 1336.53   34.50
  -5  -1  14 1333.35   38.86
  -6   5 -14 1271.45   36.74
   1  -6 -14 1346.94   36.21
   5   1 -17  101.01    8.43
   6  -5  17  116.90   10.06
   6  -5  17  111.70   10.17
  -1   6  17  128.89   12.74
   5   1 -17  102.61    6.71
  -6   5 -17  127.00    9.71
  -5  -1  17  120.33   11.37
   5   1 -17  115.14    5.92
   1  -6 -17  114.48   10.38
   5   1 -17  104.51    9.66
  -5  -1  17  134.26    9.45
   1  -6 -17  120.09    7.41
  -5  -1  17  128.33   11.04
   1  -6 -17  123.42    9.27
  -6   5 -17  121.36    8.50
   1  -6 -17  109.06    9.43
   1  -6 -20   64.24    7.23
   6  -5  20   72.51    9.36
   5   1 -20   73.38    7.09
   6  -5  20   76.69   10.06
   1  -6 -20   64.64    5.70
  -6   5 -20   78.78   10.96
   5   1 -20   74.78    6.25
  -1   6  20   73.67   11.75
   5   1 -20   82.32   10.12
   1  -6 -20   53.22    8.85
   5   1 -20   67.37    5.27
  -5  -1  20   78.72   10.90
  -5  -1  23  104.76   13.73
   6  -5  23  138.46   13.00
   1  -6 -23  169.27   14.92
   5   1 -23  125.11   13.05
  -6   5 -23  142.42   14.56
   5   1 -23  140.60    8.02
   6  -5  26   64.99   12.14
  -5  -1  26   85.84   13.45
  -6   5 -26  100.89   13.81
   5   1 -26   79.61   12.37
   1  -6 -26   66.57   12.33
   6  -5  29    4.14   11.51
   4   2  29    3.37    8.90
  -4  -2 -29    9.77    8.89
  -6   4  29   16.59   11.15
  -2   6 -29    8.21   10.54
  -2   6 -26   49.44   11.95
   4   2  26   39.06   10.04
   6  -4 -26   45.72   12.14
   2  -6  26   52.30   11.61
  -6   4  26   21.61    9.94
   4   2  23   36.67    5.31
  -2   6 -23   32.00    9.90
   6  -4 -23   36.57   10.56
   2  -6  23   36.30   10.13
  -6   4  23   53.87   10.26
   4   2  20  143.40    9.08
  -6   4  20  127.47    8.21
   6  -4 -20  127.55    7.10
  -2   6 -20  114.93   12.35
   2  -6  20  142.37    9.28
  -6   4  20  132.79    8.69
  -6   4  20  162.83   13.44
   6  -4 -20  148.61   13.37
  -6   4  20  145.88   12.15
   2  -6  20  131.53   12.10
  -6   4  17   33.52    6.01
   2  -6  17   29.80    5.95
  -2   6 -17   29.30    4.24
  -6   4  17   33.66    5.53
   6  -4 -17   48.10    8.27
   6  -4 -17   31.38    3.79
  -6   4  17   30.03    7.19
   2  -6  17   25.10    6.72
  -2   6 -17   31.44    7.86
  -6   4  17   21.90    6.22
   2  -6  17   43.47    7.36
   2  -6  14 1290.34   38.61
  -6   4  14 1302.22   38.12
  -6   4  14 1317.71   39.61
  -6   4  14 1307.58   35.45
  -2   6 -14 1355.81   33.76
   6  -4 -14 1241.99   39.70
   2  -6  14 1320.06   37.68
  -6   4  14 1348.32   37.19
   4   2  11   14.41    4.92
   2  -6  11   22.31    5.02
  -6   4  11   14.28    5.05
   2  -6  11    9.19    4.05
  -6   4  11    9.92    3.69
  -2   6 -11   10.30    3.44
  -6   4  11   12.04    4.37
   6  -4 -11   12.02    4.77
  -4  -2 -11   18.91    5.63
   2  -6  11   12.06    5.37
  -4  -2 -11   13.99    4.97
  -2   6 -11   13.82    5.19
  -6   4  11   12.40    1.89
  -6   4  11   13.84    4.53
  -6   4   8  553.17   19.55
   2  -6   8  568.81   21.09
  -6   4   8  536.02   20.26
  -4  -2  -8  577.72   19.64
  -6   4   8  564.97   18.79
   6  -4  -8  593.43   20.94
   4   2   8  584.03   22.99
  -6   4   8  567.23   14.72
  -4  -2  -8  537.76   20.03
   2  -6   8  568.73   20.45
  -2   6  -8  568.48   21.46
  -6   4   8  517.73   19.29
   4   2   8  576.02   19.73
   2  -6   8  567.85   18.78
  -6   4   8  519.54   17.33
  -6   4   5  100.45    7.12
   2  -6   5  113.56    8.79
   6  -4  -5   95.99    7.48
  -6   4   5   83.99    7.38
   4   2   5  116.48    8.69
  -4  -2  -5   96.23    7.19
  -6   4   5   87.23    4.31
  -2   6  -5  110.04    7.44
  -2   6  -5   92.51    7.64
  -6   4   5   93.16    6.96
  -6   4   5   91.77    5.04
  -6   4   5   91.87    7.97
   4   2   5  101.22    7.28
  -6   4   2  333.99   13.45
  -4  -2  -2  332.13    9.79
  -2   6  -2  313.33   11.24
   4   2   2  334.13   13.94
  -2   6  -2  356.67   14.19
  -4  -2  -2  326.03   12.45
  -4  -2  -2  325.28   14.09
  -2   6  -2  332.85   13.93
  -6   4   2  342.61    9.57
   2  -6   2  341.09   13.80
   2  -6   2  339.81    9.32
  -6   4   2  310.73   11.62
  -6   4  -1  147.91    7.02
  -6   4  -1  126.25    9.25
  -6   4  -1  142.06    9.13
   2  -6  -1  154.67   10.20
  -6   4  -1  133.94    4.82
   6  -4   1  134.13    8.72
   4   2  -1  131.24    7.58
  -4  -2   1  144.25    6.88
  -2   6   1  142.12    8.50
  -2   6   1  137.96    6.57
   2  -6  -1  135.82    8.07
  -4  -2   1  122.37    8.45
  -2   6   1  142.45    8.12
  -4  -2   1  148.82    6.90
   2  -6  -1  138.86    5.09
  -2   6   1  138.09    4.69
   6  -4   4 2537.42   58.73
  -2   6   4 2463.02   56.52
  -6   4  -4 2539.93   63.89
  -6   4  -4 2536.36   59.42
   2  -6  -4 2522.92   57.54
  -6   4  -4 2419.32   62.45
  -6   4  -4 2504.97   61.78
   6  -4   4 2383.06   62.87
   2  -6  -4 2429.45   59.16
   2  -6  -4 2516.13   64.75
   4   2  -4 2468.72   57.00
   2  -6  -4 2523.80   58.94
  -2   6   4 2601.72   62.64
   4   2  -4 2545.15   59.13
  -4  -2   4 2487.45   57.76
   2  -6  -4 2561.86   60.03
  -4  -2   4 2521.64   62.03
  -2   6   4 2543.08   60.22
  -4  -2   4 2474.00   58.90
  -6   4  -4 2504.83   56.70
  -2   6   4 2465.54   56.78
   6  -4   7  180.50    8.70
  -6   4  -7  178.29   10.74
   2  -6  -7  201.98   11.58
  -6   4  -7  184.40   10.76
   4   2  -7  187.61    8.32
  -6   4  -7  179.86   10.16
  -2   6   7  181.17    7.79
  -6   4  -7  189.97    9.33
   2  -6  -7  177.49    8.77
   2  -6  -7  160.23    9.42
  -2   6   7  186.98   10.49
   4   2  -7  184.95    7.80
   4   2  -7  168.74    7.55
   2  -6  -7  176.39    8.73
  -4  -2   7  181.69   10.16
   2  -6  -7  187.17    8.54
   2  -6  -7  174.37    7.28
  -4  -2   7  189.64    8.96
  -6   4  -7  182.22    7.97
  -4  -2  10   85.93    6.87
  -2   6  10   79.88    6.02
  -6   4 -10   91.66    7.18
   6  -4  10   75.65    6.53
   2  -6 -10   87.76    7.86
   6  -4  10   96.83    6.44
  -6   4 -10   67.92    7.28
  -6   4 -10   71.56    7.36
   6  -4  10   87.20    8.28
   4   2 -10   82.59    4.68
   4   2 -10   79.02    5.19
  -2   6  10   94.45    8.10
   2  -6 -10   91.42    7.54
   4   2 -10   88.25    8.16
   2  -6 -10   83.03    5.41
  -4  -2  10   80.72    6.98
   4   2 -10   83.75    6.55
   2  -6 -10   83.39    5.65
  -6   4 -10   74.64    6.14
   2  -6 -10   86.46    6.85
   2  -6 -10   79.00    6.68
   4   2 -10   96.03    6.37
   6  -4  13   86.14    7.43
  -6   4 -13  127.68    9.44
   6  -4  13  120.42    8.58
  -2   6  13  116.18    8.16
   6  -4  13  116.13    9.70
  -4  -2  13  116.40    8.86
  -2   6  13  131.01   10.22
  -6   4 -13  118.11    8.42
  -4  -2  13  107.55    9.33
   2  -6 -13  123.70    9.08
   4   2 -13  112.22    6.30
   2  -6 -13  115.04    8.85
   4   2 -13  118.90    9.88
  -4  -2  13  115.83    8.43
   2  -6 -13  106.53    5.88
   2  -6 -13  122.84    9.03
  -6   4 -13  114.76    8.43
   4   2 -13  116.85    8.43
   2  -6 -13  115.61    7.96
   4   2 -13  117.04    8.26
   2  -6 -13  117.55    8.77
   6  -4  16  379.52   17.62
  -2   6  16  384.96   16.16
  -2   6  16  368.95   18.80
  -6   4 -16  348.91   14.51
   2  -6 -16  337.52   15.07
   4   2 -16  332.79   12.44
   4   2 -16  331.66   16.91
  -4  -2  16  334.18   14.94
   2  -6 -16  344.77   10.60
  -6   4 -16  340.43   15.41
  -4  -2  16  339.27   17.72
   2  -6 -16  354.96   16.91
   6  -4  16  338.26   16.04
  -2   6  16  328.25   16.41
   2  -6 -16  340.51   15.33
   4   2 -19  208.57   14.19
  -6   4 -19  236.11   15.72
  -2   6  19  210.86   14.16
   6  -4  19  216.64   14.00
  -2   6  19  188.28   15.12
   2  -6 -19  203.04   14.28
  -4  -2  19  215.32   15.38
   6  -4  19  237.85   14.28
   2  -6 -19  217.69   11.37
  -6   4 -22  932.04   34.34
  -4  -2  22  859.45   34.72
   6  -4  22  911.20   31.09
   4   2 -22  927.61   32.41
   6  -4  22  876.35   32.83
  -2   6  22  884.15   33.62
   2  -6 -22  883.00   33.91
   4   2 -25   -1.03    8.46
  -6   4 -25   19.43    9.44
   6  -4  25   10.74    7.43
  -2   6  25   12.07   10.00
   6  -4  25   -5.07    8.78
  -4  -2  25    1.50    9.83
   2  -6 -25   24.71   10.18
   4   2 -28  119.69   14.34
   2  -6 -28  141.73   15.81
  -6   4 -28  143.00   15.01
  -2   6  28  161.41   16.73
   6  -4  28  145.80   15.78
   6  -4  28  142.77   12.24
   3   3  30    3.34    9.14
   3  -6  27  174.35   16.11
   6  -3 -27  155.57   17.06
  -6   3  27  169.26   15.95
  -3  -3 -27  171.53   12.75
  -3   6 -27  150.31   15.71
   6  -3 -24   26.53   10.50
  -3   6 -24   33.47    9.63
  -6   3  24   37.11    9.76
   3  -6  24   35.83    9.80
   6  -3 -21   14.16    7.59
   6  -3 -21   13.54    3.55
  -6   3  21   15.65    4.56
  -3   6 -21   12.16    7.49
   3   3  21   12.96    4.47
  -6   3  21   11.32    3.48
  -6   3  21   15.50    7.32
   3  -6  21   16.59    7.77
   6  -3 -18  882.07   31.97
  -3   6 -18  828.60   31.63
  -6   3  18  920.33   31.74
   6  -3 -18  821.38   20.61
  -6   3  18  890.91   26.09
   3  -6  18  860.05   26.71
  -6   3  18  859.88   30.23
   3  -6  18  854.12   30.11
  -3  -3 -18  815.86   31.79
  -6   3  18  843.32   23.50
  -3   6 -15  418.92   14.59
  -6   3  15  404.42   14.25
   6  -3 -15  419.03   19.07
   3  -6  15  408.25   16.90
  -3  -3 -15  384.32   18.83
  -6   3  15  405.40   18.46
   3  -6  15  376.60   17.27
  -6   3  15  421.42   18.23
   3  -6  15  383.58   16.42
  -6   3  15  406.01   16.26
  -6   3  15  421.93   11.62
  -6   3  12    1.36    4.52
   3  -6  12   -0.73    4.04
  -6   3  12    2.00    3.64
   3  -6  12    2.00    3.78
  -3   6 -12    4.54    3.68
  -6   3  12    1.85    3.40
   6  -3 -12    2.39    4.01
  -3  -3 -12    8.33    5.66
   3   3  12    1.16    5.36
   3  -6  12    3.37    3.71
  -3  -3 -12    1.68    4.26
  -6   3  12    1.53    3.84
  -6   3  12    3.53    2.39
  -3   6 -12    1.88    4.91
   3   3  12    0.69    4.30
  -3  -3  -9   79.86    7.33
   3  -6   9   87.75    6.08
   3   3   9   80.90    7.03
   3  -6   9   88.74    7.72
  -3  -3  -9   84.71    7.40
   6  -3  -9   86.97    7.56
  -3   6  -9   87.41    6.39
  -6   3   9   95.68    6.81
  -6   3   9   82.66    7.73
  -3  -3  -9   84.89    7.60
   3  -6   9   96.24    8.39
  -6   3   9   86.26    5.22
  -3   6  -9   94.95    8.35
   3  -6   9  106.66    7.08
  -6   3   9   88.79    6.49
  -6   3   9  104.68    7.66
   6  -3  -9   81.97    7.37
   6  -3  -6    2.94    3.87
   3  -6   6    1.57    3.69
  -3   6  -6    5.77    3.71
  -3  -3  -6    5.14    3.96
  -6   3   6    0.50    3.29
  -6   3   6    1.03    3.57
   6  -3  -6    1.93    3.72
  -3  -3  -6    3.51    3.57
   3   3   6    7.92    4.17
   3  -6   6    0.76    1.95
  -3  -3  -6    3.72    3.23
   3  -6   6    1.95    2.30
  -6   3   6    0.78    2.42
  -6   3   6    3.61    3.06
  -3  -3  -6   -0.57    3.65
   3   3   6   -0.54    3.22
   6  -3  -3  148.61    9.67
   3   3   3  136.80    7.80
  -6   3   3  142.96    7.70
  -6   3   3  139.32    8.07
  -3   6  -3  134.18    7.48
   3   3   3  140.38    8.79
   6  -3  -3  136.87    8.13
  -3  -3  -3  127.53    7.60
  -3   6  -3  146.46    8.61
  -3   6  -3  148.71    8.77
   3  -6   3  156.36    9.04
  -3  -3  -3  142.11    8.23
  -6   3   3  130.88    7.66
  -3   6   0 3241.11   77.26
  -6   3   0 3440.53   79.33
   3  -6   0 3429.85   79.38
  -3  -3   0 3347.30   77.89
   3   3   0 3288.79   79.38
  -3   6   0 3468.26   80.03
  -6   3   0 3439.74   78.38
  -3  -3   0 3408.35   79.57
   3  -6   0 3212.84   82.70
  -3  -3   0 3318.52   80.30
  -3   6   0 3395.09   79.21
   6  -3   0 3384.61   82.47
  -3   6   0 3300.66   75.24
   6  -3   0 3434.76   80.77
   3  -6  -3  206.76   11.64
  -6   3  -3  201.92    9.29
   6  -3   3  201.18   10.76
  -6   3  -3  208.13   10.47
   3  -6  -3  218.43    9.61
  -6   3  -3  189.74    9.80
   3  -6  -3  216.16    7.96
  -6   3  -3  189.91    7.58
  -3  -3   3  184.52    8.29
  -3   6   3  203.60   10.05
   3   3  -3  187.07    9.01
  -3   6   3  196.10    8.67
  -3   6   3  211.04    9.07
  -3  -3   3  198.94   10.52
  -3  -3   3  197.75    7.60
  -3   6   3  196.95    7.50
   3  -6  -3  201.01    9.14
  -3  -3   3  202.35    9.93
   6  -3   3  203.20    8.90
  -3   6   3  198.64    5.66
   6  -3   6  497.17   19.20
   3  -6  -6  493.75   19.47
   6  -3   6  455.27   18.85
  -6   3  -6  523.37   15.47
   3  -6  -6  495.34   15.38
   3  -6  -6  520.19   17.20
  -3   6   6  494.98   13.94
  -6   3  -6  497.52   16.99
  -3   6   6  508.66   17.85
   3  -6  -6  490.79   16.93
   3   3  -6  491.86   15.91
   3   3  -6  480.04   13.57
  -3  -3   6  517.02   18.13
  -3   6   6  474.50   14.87
  -3  -3   6  507.85   15.51
  -3   6   6  462.68   15.03
   3  -6  -6  492.10   15.26
   6  -3   6  479.91   16.38
  -6   3  -9   56.41    5.85
  -3   6   9   45.05    4.37
   6  -3   9   57.60    6.43
  -3  -3   9   48.75    5.08
  -3   6   9   49.30    5.06
   3   3  -9   48.71    4.70
   3  -6  -9   37.98    4.42
   3  -6  -9   43.94    5.89
  -6   3  -9   34.71    5.96
   3   3  -9   46.21    4.64
   3  -6  -9   42.53    5.47
  -3   6   9   46.06    5.81
   6  -3   9   47.42    5.57
   3   3  -9   47.01    6.39
   3  -6  -9   46.84    3.65
  -3  -3   9   53.46    6.21
   3  -6  -9   54.83    5.46
  -6   3  -9   39.69    4.82
   3  -6  -9   47.74    5.42
  -3   6  12  151.94    8.90
   6  -3  12  148.03    9.51
  -6   3 -12  166.82   10.46
  -6   3 -12  164.24    9.96
   3  -6 -12  134.21    9.52
   3   3 -12  148.84    4.91
   6  -3  12  157.43   11.24
  -3   6  12  120.64    8.34
   6  -3  12  151.24    9.06
  -3   6  12  149.02   10.31
   3   3 -12  141.82    7.89
   3  -6 -12  145.73    9.42
   3   3 -12  135.24    8.42
   3  -6 -12  157.98    8.80
   3   3 -12  145.69   10.76
  -3  -3  12  141.32    9.66
  -6   3 -12  152.92    9.24
   3  -6 -12  141.20    9.13
  -3  -3  12  143.01   10.30
   3  -6 -12  137.93    9.41
   3  -6 -12  157.06    5.04
  -3  -3  15   35.32    6.52
  -6   3 -15   25.15    5.17
   3  -6 -15   20.39    5.33
   6  -3  15   40.67    7.31
  -3  -3  15   19.24    6.00
  -6   3 -15   34.91    6.38
   3  -6 -15   33.56    6.42
   3  -6 -15   28.95    6.52
   3  -6 -15   25.95    6.06
  -3   6  15   20.42    5.93
   3   3 -15   27.84    4.69
  -3   6  15   21.93    5.45
  -6   3 -15   18.36    6.05
   3   3 -15   42.34    7.55
   3   3 -15   31.55    5.52
   3  -6 -15   22.16    5.51
   6  -3  15   21.71    5.71
  -3   6  15   27.73    5.33
   6  -3  18 1088.44   35.62
   6  -3  18 1063.27   35.13
  -3   6  18 1038.46   34.66
  -3   6  18 1106.96   29.94
  -3  -3  18 1068.47   36.67
  -6   3 -18 1080.43   30.60
   3  -6 -18 1101.72   31.96
   3  -6 -18 1030.66   35.82
  -3   6  18 1034.08   36.61
   3   3 -18 1087.33   36.15
   6  -3  21   35.39    8.09
  -3  -3  21   35.90    9.10
   3   3 -21   39.21    8.66
  -6   3 -21   38.50    9.59
   3  -6 -21   34.41    8.67
  -3   6  21   47.97    5.13
   6  -3  21   49.91    9.49
  -3   6  21   30.73    8.63
   3   3 -24   45.71   10.26
   3  -6 -24   33.61   10.77
  -6   3 -24   43.30   10.07
  -3   6  24   61.21   11.14
   6  -3  24   32.81    9.77
  -3  -3  24   45.01   11.17
   6  -3  24   40.65    8.92
   3   3 -27   16.60    9.80
   3  -6 -27   -4.54   10.43
  -6   3 -27   19.42   10.55
  -3  -3  27   -6.31   11.15
   6  -3  27    6.96    9.65
  -3   6  27    2.76    9.70
   6  -3  27   24.45    8.05
  -6   2  28  119.08   14.98
   4  -6  28  103.59   13.83
  -4   6 -28  124.50   14.99
   6  -2 -28  114.12   15.88
  -6   2  25   13.40    9.78
   4  -6  25   34.51   10.10
   6  -2 -25   29.33   10.57
  -4   6 -25   20.97   10.59
   6  -2 -22  592.84   27.29
  -6   2  22  605.62   26.35
   4  -6  22  568.85   25.09
  -4   6 -22  570.53   26.42
  -4   6 -19  320.33   18.49
   4  -6  19  333.04   17.21
  -6   2  19  285.70   17.11
   6  -2 -19  309.93   18.03
  -4   6 -19  302.36   13.42
  -6   2  19  322.86   13.70
   6  -2 -16  160.11    9.44
  -4   6 -16  129.56    9.02
  -4   6 -16  115.54    8.23
  -6   2  16  136.36    7.10
   2   4  16  146.99   13.55
   6  -2 -16  158.21   11.74
  -2  -4 -16  139.96   10.11
  -6   2  16  135.06    6.98
   4  -6  16  124.05    9.44
  -2  -4 -16  143.12   11.76
   4  -6  16  151.93    9.93
  -6   2  16  136.61    9.42
  -6   2  16  122.74   10.42
   4  -6  16  133.08   10.31
  -6   2  13    3.24    3.25
  -4   6 -13    4.16    3.79
   4  -6  13    4.53    4.49
   6  -2 -13    2.40    4.37
   2   4  13    2.34    6.03
   2   4  13    5.54    4.77
  -4   6 -13   -0.99    5.00
  -6   2  13    3.57    3.10
  -2  -4 -13    1.74    4.49
   4  -6  13    4.57    3.96
   6  -2 -13    6.00    4.62
  -6   2  13    3.02    4.03
   6  -2 -10  865.41   27.81
   4  -6  10  886.79   28.58
  -6   2  10  836.95   24.60
  -4   6 -10  843.78   25.45
   4  -6  10  891.36   24.35
  -2  -4 -10  893.86   28.15
   2   4  10  889.27   30.79
  -2  -4 -10  899.41   28.12
  -2  -4 -10  856.23   27.28
  -4   6 -10  870.12   29.47
  -6   2  10  858.59   23.98
   2   4  10  888.23   26.74
  -6   2  10  862.64   26.63
   4  -6  10  881.07   25.86
   6  -2 -10  856.24   27.43
   6  -2  -7  101.86    8.50
   4  -6   7  113.36    8.86
  -4   6  -7  112.38    7.38
  -6   2   7   97.64    6.87
   2   4   7   94.94    6.92
   6  -2  -7  111.96    7.80
  -4   6  -7   91.20    7.65
  -2  -4  -7  106.63    7.84
  -6   2   7  104.04    6.61
  -2  -4  -7   98.42    7.64
  -4   6  -7   97.84    8.20
   4  -6   7  104.18    6.24
  -2  -4  -7   95.36    7.26
   4  -6   7  102.01    4.95
  -6   2   7  100.22    6.85
  -4   6  -4  814.01   24.32
  -4   6  -4  786.24   25.83
   6  -2  -4  817.40   24.78
  -6   2   4  839.27   24.72
   2   4   4  791.94   23.56
  -6   2   4  787.50   18.41
  -2  -4  -4  816.85   24.65
  -6   2   4  858.34   24.65
   6  -2  -4  804.42   24.29
  -4   6  -4  824.20   25.82
  -2  -4  -4  814.38   25.16
   4  -6   4  828.68   20.87
  -6   2   4  822.72   23.72
  -2  -4  -4  807.93   18.75
  -2  -4  -4  852.39   24.59
   6  -2  -4  825.45   27.08
   6  -2  -1   22.09    4.04
   4  -6   1   17.56    4.62
  -4   6  -1   14.99    4.45
  -4   6  -1   18.00    3.84
  -6   2   1   19.13    3.87
   2   4   1   19.30    4.03
  -4   6  -1   20.31    3.81
  -2  -4  -1   16.74    3.74
  -6   2   1   17.34    2.92
  -4   6  -1   13.91    3.65
  -2  -4  -1   12.76    1.61
  -2  -4  -1   17.46    3.47
  -6   2   1   20.02    3.69
   6  -2  -1   11.99    4.23
  -2  -4   2  725.11   21.95
  -6   2  -2  703.74   22.26
   4  -6  -2  774.35   25.97
   6  -2   2  752.03   25.33
   4  -6  -2  709.46   17.95
   6  -2   2  741.05   24.07
  -4   6   2  723.96   22.24
  -2  -4   2  703.73   21.14
   2   4  -2  726.44   22.37
  -2  -4   2  704.42   23.03
  -4   6   2  719.82   21.09
  -6   2  -2  736.58   22.20
  -2  -4   2  735.65   17.98
  -6   2  -2  718.08   22.12
  -4   6   2  721.54   21.56
   2   4  -2  781.61   24.89
  -4   6   2  730.78   20.38
   4  -6  -5    0.83    3.82
  -4   6   5    0.67    3.74
  -4   6   5    2.00    2.58
  -2  -4   5    3.74    2.17
   6  -2   5    1.52    3.41
   2   4  -5    1.15    1.28
  -4   6   5    3.31    2.96
   4  -6  -5    1.17    3.00
  -6   2  -5   -0.69    3.85
   2   4  -5   -0.51    2.96
  -4   6   5    6.35    3.00
   6  -2   5    0.50    3.31
  -4   6   5    3.51    1.63
  -6   2  -5    2.30    3.35
   2   4  -5    1.51    3.12
  -4   6   5    0.96    2.07
  -2  -4   5   -1.84    3.84
   4  -6  -5    1.67    2.16
  -6   2  -5   -0.39    2.73
  -6   2  -8  767.47   24.52
  -4   6   8  760.09   21.30
   6  -2   8  773.93   23.79
   4  -6  -8  757.51   26.03
   6  -2   8  783.81   25.93
  -4   6   8  732.05   24.40
   4  -6  -8  779.80   24.70
   4  -6  -8  734.82   21.62
  -6   2  -8  736.71   26.51
   4  -6  -8  777.95   22.82
   2   4  -8  734.18   22.85
  -4   6   8  756.96   23.76
  -4   6   8  796.67   19.31
  -2  -4   8  797.72   24.91
   2   4  -8  737.85   20.71
  -6   2  -8  755.07   22.59
  -4   6   8  722.92   22.61
   6  -2  11   15.51    4.64
   4  -6 -11   17.56    4.41
   6  -2  11   13.82    4.67
   4  -6 -11   26.33    5.27
   6  -2  11   20.42    5.73
   4  -6 -11   16.10    4.67
  -6   2 -11   15.66    6.52
   2   4 -11   15.57    3.79
   4  -6 -11   20.64    4.53
  -4   6  11   17.94    4.71
   2   4 -11   23.51    5.94
  -2  -4  11   10.18    5.13
  -4   6  11   22.11    4.08
  -6   2 -11   20.60    4.76
  -4   6  11   14.52    4.12
  -6   2 -11   18.27    4.70
  -4   6  11   14.83    4.10
   4  -6 -11   22.36    4.59
   2   4 -11   14.42    3.86
   4  -6 -14 1319.87   38.36
  -4   6  14 1285.72   37.34
  -6   2 -14 1357.62   40.30
  -4   6  14 1301.07   37.09
  -4   6  14 1380.85   36.40
   6  -2  14 1344.57   37.74
   6  -2  14 1273.11   40.71
  -4   6  14 1273.98   38.59
  -4   6  14 1280.16   38.36
   4  -6 -14 1285.77   36.29
   2   4 -14 1278.46   36.14
   2   4 -14 1291.36   40.82
   4  -6 -14 1301.81   36.90
   2   4 -14 1335.33   36.16
   4  -6 -14 1409.02   40.10
   4  -6 -14 1329.78   37.28
  -6   2 -14 1341.90   37.72
  -4   6  17  114.61   10.44
   4  -6 -17  103.04    8.78
  -4   6  17  108.57    7.74
  -4   6  17  117.35   10.15
   6  -2  17  127.28   10.87
  -6   2 -17  107.82    8.35
   4  -6 -17  105.79   10.60
   6  -2  17  137.29   11.30
   2   4 -17  101.25   10.99
  -6   2 -17  121.48   11.40
   4  -6 -20  320.38   19.14
   6  -2  20  330.08   17.87
   2   4 -20  332.06   18.55
  -2  -4  20  318.03   13.52
  -4   6  20  325.71   12.40
   6  -2  20  340.94   18.59
  -4   6  20  318.66   17.54
   2   4 -23  132.62   13.42
  -6   2 -23   93.18   11.55
  -2  -4  23   94.59    6.83
   6  -2  23   95.33   12.14
  -4   6  23   88.39   11.55
   6  -2  23   93.52   11.06
   4  -6 -23  104.45   13.11
   6  -2  26  182.59   14.35
  -6   2 -26  178.29   15.54
   2   4 -26  210.68   16.21
  -4   6  26  189.97   16.69
   6  -2  26  219.33   17.57
   4  -6 -26  168.30   16.74
  -6   2 -29   12.77   10.20
  -4   6  29    5.66   10.61
   6  -2  29   16.82    8.83
   2   4 -29    7.19   10.40
   5  -6  29  609.79   29.13
  -5   6 -26   -2.72    9.12
   5  -6  26  -12.47    9.61
  -6   1  26   -1.45   10.04
   6  -1 -26   -2.90   10.11
  -5   6 -23   27.32    9.49
   6  -1 -23   30.20   10.08
  -6   1  23   27.83    9.67
   5  -6  23   11.26    8.55
  -1  -5 -20  199.47   10.96
  -6   1  20  204.38   11.10
  -1  -5 -20  183.36   11.66
  -5   6 -20  174.65   14.83
  -6   1  20  183.07   14.86
   5  -6  20  186.79   13.35
   6  -1 -20  197.58   14.81
   6  -1 -20  209.59   10.55
  -6   1  20  190.12   14.89
   1   5  17  627.21   29.30
  -1  -5 -17  676.25   22.91
   6  -1 -17  630.37   25.31
  -1  -5 -17  680.72   23.28
   5  -6  17  668.05   23.74
  -6   1  17  683.66   20.70
   6  -1 -17  690.78   22.64
  -5   6 -17  651.73   22.34
  -1  -5 -17  713.17   24.04
  -6   1  17  610.71   25.57
  -6   1  17  680.89   26.52
   5  -6  17  671.07   24.69
   6  -1 -14  801.46   26.56
  -5   6 -14  769.11   25.84
  -5   6 -14  795.51   25.59
  -5   6 -14  878.20   26.29
   1   5  14  896.08   32.46
  -1  -5 -14  857.29   26.23
  -6   1  14  819.80   28.24
   6  -1 -14  814.98   27.80
  -6   1  14  825.45   24.04
  -1  -5 -14  844.05   26.66
  -5   6 -14  840.96   30.70
   5  -6  14  824.12   26.62
  -6   1  14  843.57   28.56
  -1  -5 -14  826.37   29.03
   5  -6  14  828.02   25.71
   1   5  11  942.17   28.58
   5  -6  11  990.06   31.67
  -1  -5 -11  991.56   29.77
   6  -1 -11  982.14   30.58
  -5   6 -11  972.90   29.63
  -5   6 -11  970.77   28.76
  -5   6 -11  963.87   29.41
   1   5  11  976.57   33.45
  -6   1  11  954.60   29.96
  -1  -5 -11 1000.61   27.89
   6  -1 -11  978.47   29.64
  -6   1  11  956.44   27.17
  -1  -5 -11  947.69   28.92
  -5   6 -11  948.63   32.52
  -6   1  11  931.26   29.90
   5  -6  11  964.59   27.90
  -1  -5 -11  993.05   30.68
   5  -6  11  950.96   26.65
  -1  -5  -8  438.80   14.47
  -1  -5  -8  452.66   17.13
   5  -6   8  442.38   13.63
   1   5   8  448.52   16.05
   5  -6   8  485.92   19.80
  -1  -5  -8  448.01   16.91
   6  -1  -8  441.47   18.67
  -5   6  -8  437.94   17.49
  -5   6  -8  463.49   16.93
   6  -1  -8  475.49   15.60
  -5   6  -8  468.78   18.10
   6  -1  -8  469.78   17.07
   1   5   8  471.16   19.57
  -1  -5  -8  461.81   17.73
  -1  -5  -8  454.06   14.01
  -6   1   8  451.24   15.99
  -1  -5  -8  435.33   16.84
   5  -6   8  436.73   14.39
  -6   1   8  445.01   17.16
  -5   6  -8  459.09   19.05
  -6   1   5  168.52    9.29
  -1  -5  -5  167.23    6.02
  -1  -5  -5  155.88    8.63
   1   5   5  149.80    7.95
   5  -6   5  150.03    5.44
   5  -6   5  163.68   10.97
  -5   6  -5  160.43   10.24
   6  -1  -5  164.87    8.91
   6  -1  -5  154.02    8.47
  -5   6  -5  163.82    9.23
  -1  -5  -5  150.62    9.29
  -1  -5  -5  139.37    8.78
   5  -6   5  146.92    5.76
  -6   1   5  154.33    8.96
   6  -1  -5  154.15   10.72
  -6   1   5  147.23    7.98
  -1  -5  -5  158.06    5.69
  -5   6  -5  158.27   10.08
  -5   6  -2   10.06    4.01
  -6   1   2   13.44    3.17
  -1  -5  -2    9.16    3.82
  -6   1   2   18.81    2.47
  -5   6  -2   16.59    3.89
  -1  -5  -2   23.01    4.93
  -5   6  -2   13.09    4.14
   6  -1  -2   15.37    3.80
  -5   6  -2   16.72    5.05
   6  -1  -2   16.43    4.87
  -6   1   2   18.14    3.95
  -1  -5  -2   17.97    3.49
   6  -1   1 1729.18   45.49
  -6   1  -1 1698.20   42.21
  -6   1  -1 1652.31   41.55
   1   5  -1 1620.30   44.10
  -5   6   1 1742.23   43.06
  -1  -5   1 1716.71   43.07
   1   5  -1 1674.89   45.72
  -6   1  -1 1678.83   44.26
  -1  -5   1 1718.87   42.32
   5  -6  -1 1642.52   47.71
  -5   6   1 1697.62   45.96
  -5   6   1 1607.77   42.49
   6  -1   1 1627.87   47.22
  -5   6   1 1675.14   43.32
  -1  -5   4 3196.71   76.10
   6  -1   4 3307.18   77.29
  -6   1  -4 3283.24   76.02
   5  -6  -4 3275.04   81.93
  -5   6   4 3163.74   79.44
   6  -1   4 3300.77   80.32
   5  -6  -4 3187.82   78.48
  -6   1  -4 3101.62   77.24
   1   5  -4 3284.86   77.84
  -5   6   4 3255.96   76.41
  -5   6   4 3271.42   76.97
  -5   6   4 3196.21   74.39
   1   5  -4 3247.63   80.07
  -1  -5   4 3268.51   78.43
   5  -6  -4 3238.49   71.15
  -5   6   4 3273.56   76.11
  -6   1  -4 3313.33   78.51
   6  -1   7 1625.76   43.21
  -5   6   7 1694.41   44.80
   5  -6  -7 1719.87   47.05
  -5   6   7 1600.04   38.72
  -6   1  -7 1611.51   41.88
   6  -1   7 1624.97   45.68
  -5   6   7 1666.45   44.36
   6  -1   7 1593.12   46.31
   5  -6  -7 1621.64   44.35
  -6   1  -7 1565.61   44.57
   1   5  -7 1537.40   42.64
  -5   6   7 1666.90   41.89
  -5   6   7 1567.78   42.55
  -5   6   7 1653.20   38.02
  -1  -5   7 1665.04   44.13
   1   5  -7 1606.42   45.85
   5  -6  -7 1609.16   39.03
   1   5  -7 1656.61   38.23
  -5   6   7 1554.15   41.88
  -6   1  -7 1624.33   44.32
  -6   1 -10  128.62    9.28
  -5   6  10  116.70    7.69
   6  -1  10  127.93    8.94
   5  -6 -10  109.94    9.44
   6  -1  10  130.31    9.79
  -5   6  10  125.80    8.84
  -5   6  10  133.84    9.29
  -5   6  10  109.98    8.13
  -6   1 -10  110.77   10.01
   5  -6 -10  116.96    7.13
   1   5 -10  139.97    8.66
  -5   6  10   97.75    7.17
   5  -6 -10  112.34    7.02
  -1  -5  10  117.33    9.01
   5  -6 -10  131.01    9.33
  -5   6  10  128.71    7.16
  -6   1 -10  122.30    8.42
   1   5 -10  113.86    6.49
  -5   6  13   28.86    5.71
   6  -1  13   40.90    6.53
  -5   6  13   33.12    6.01
   1   5 -13   24.60    4.86
   5  -6 -13   34.47    5.75
  -5   6  13   31.80    5.71
   1   5 -13   23.56    5.17
  -5   6  13   27.00    5.50
   5  -6 -13   27.27    4.88
   1   5 -13   34.85    6.94
  -6   1 -13   34.33    6.42
  -5   6  13   20.49    5.66
   1   5 -13   29.74    2.94
   6  -1  13   40.14    7.39
   5  -6 -13   29.78    6.06
  -1  -5  13   27.25    5.88
   5  -6 -13   28.30    5.33
  -5   6  13   30.64    5.20
  -6   1 -13   37.45    5.99
   6  -1  16   66.30    7.45
  -5   6  16   71.61    6.89
  -5   6  16   57.83    8.11
   1   5 -16   58.21    6.96
   6  -1  16   58.88    8.99
   5  -6 -16   56.84    8.27
  -5   6  16   66.71    7.75
   5  -6 -16   67.92    6.83
  -5   6  16   69.94    8.09
  -6   1 -16   71.58    9.12
   5  -6 -16   64.74    7.77
  -1  -5  16   71.72    8.72
   1   5 -16   65.89    9.70
  -5   6  16   63.75    7.46
   6  -1  19  301.61   17.70
  -6   1 -19  303.30   18.37
  -1  -5  19  345.96   14.60
   5  -6 -19  326.57   14.67
  -5   6  19  319.64   16.81
  -5   6  19  343.11   13.09
   6  -1  19  312.42   14.47
   5  -6 -19  296.54   18.30
  -1  -5  19  308.91   18.22
   1   5 -19  307.23   18.58
   1   5 -22 1288.49   43.15
  -1  -5  22 1243.10   34.32
   6  -1  22 1311.17   41.75
  -5   6  22 1216.08   40.86
   5  -6 -22 1324.21   45.05
  -1  -5  22 1244.22   43.64
  -6   1 -25  112.88   13.49
  -1  -5  25   84.78   13.11
   6  -1  25   85.54   11.89
  -5   6  25  102.91   12.63
   1   5 -25   94.93   13.11
   5  -6 -25   88.76   13.66
  -5   6  28  104.76   13.86
   6  -1  28   84.81   12.25
   1   5 -28   64.26   13.05
  -6   1 -28   72.03   12.68
   6   0 -27   65.63   12.24
   0  -6 -27   65.59   12.58
  -6   0  27   60.52   13.36
  -6   6 -27   71.31   13.30
   6  -6  27   67.79   12.24
   0  -6 -24    4.91    8.45
   6   0 -24    2.61    8.87
  -6   0  24    1.44    9.57
  -6   6 -24    2.75    8.60
   6  -6  24   -1.16    8.66
   6  -6  21  117.67   11.81
   6   0 -21  123.70   12.31
   6   0 -21  109.58    8.71
  -6   6 -21  128.75   13.36
   0  -6 -21  127.59    9.45
  -6   0  21  115.77   13.10
   6  -6  18  754.86   26.85
   0   6  18  727.53   31.60
   0  -6 -18  702.55   26.59
   6   0 -18  713.88   27.32
  -6   0  18  728.50   28.51
  -6   0  18  744.53   23.50
   0  -6 -18  747.25   23.74
   0  -6 -18  747.23   25.11
  -6   6 -18  724.79   24.52
   6   0 -18  736.60   24.58
  -6   0  18  749.46   29.29
   6   0 -15   34.64    6.42
  -6   6 -15   36.11    7.60
  -6   6 -15   46.41    7.01
  -6   6 -15   34.86    6.31
  -6   0  15   30.05    6.99
  -6   6 -15   34.83    6.29
   0  -6 -15   42.29    6.87
   6   0 -15   43.25    6.79
   0  -6 -15   38.75    6.75
   0   6  15   48.40    8.75
  -6   0  15   33.41    6.79
   0  -6 -15   39.09    6.60
   6  -6  15   43.29    6.61
  -6   0  15   42.81    5.98
   0  -6 -15   43.26    5.99
   6  -6  15   39.30    6.25
   0   6  12   54.53    6.14
   6   0 -12   54.87    7.29
  -6   6 -12   47.76    8.03
  -6   6 -12   48.76    5.74
  -6   0  12   38.85    6.92
  -6   6 -12   60.76    7.37
  -6   6 -12   48.22    6.75
   0  -6 -12   55.52    7.14
  -6   6 -12   48.96    6.68
   0  -6 -12   46.65    5.53
   6   0 -12   45.16    6.19
   0   6  12   47.35    7.95
   0  -6 -12   53.69    5.52
  -6   0  12   52.45    6.90
   6  -6  12   46.40    5.81
   0  -6 -12   44.37    6.41
   6  -6  12   41.27    5.29
  -6   0  12   46.35    5.90
   0  -6 -12   45.83    6.29
  -6   6  -9    5.75    5.01
  -6   6  -9   -0.75    4.59
   0  -6  -9    2.93    4.16
  -6   0   9    2.32    4.17
  -6   6  -9    0.65    4.80
   6   0  -9   -1.30    2.91
   6   0  -9    5.89    3.62
   0  -6  -9    1.22    2.70
   0   6   9   -0.94    4.24
   0  -6  -9   -1.61    2.81
  -6   0   9   -1.33    3.59
   0  -6  -9    1.29    3.44
  -6   6  -9    3.73    4.92
   6  -6   9    1.79    2.85
   0  -6  -9    0.62    4.56
   0   6   9    0.51    3.75
   6  -6   9    1.13    2.82
  -6   6  -6    6.55    4.70
  -6   6  -6    0.78    5.05
   0  -6  -6    4.70    3.93
  -6   0   6    0.61    3.92
  -6   6  -6    5.69    4.41
   6   0  -6    6.19    3.60
   6   0  -6    4.16    3.28
   0  -6  -6    6.46    2.47
   0   6   6    1.67    3.81
   0  -6  -6    3.90    4.33
  -6   0   6    1.79    3.21
   0  -6  -6    5.12    1.70
  -6   6  -6    3.83    2.49
   0  -6  -6    5.75    3.43
  -6   6  -6    2.47    4.04
   6  -6   6    2.79    1.67
   0  -6  -6    7.83    4.10
   0   6   6    9.52    3.32
   6  -6   6    5.76    2.28
   6   0  -3    7.21    3.76
  -6   6  -3    8.74    4.55
  -6   0   3    4.98    2.90
  -6   6  -3    3.19    3.87
   0   6   3    7.43    3.92
  -6   0   3    2.97    1.90
   0  -6  -3    5.96    4.08
  -6   0   3    0.69    3.32
  -6   6  -3    4.97    3.91
  -6   6  -3    6.91    1.97
   0  -6  -3    1.74    2.73
  -6   0   3    0.57    3.10
   0   6   3    3.45    3.80
  -6   0   3    7.14    4.19
   0  -6  -3    5.98    3.92
  -6   6  -3   -0.73    4.28
  -6   6  -3   -1.58    4.78
  -6   6   0 5179.48  118.49
  -6   0   0 5287.38  119.46
  -6   6   0 4924.12  120.54
  -6   6   0 5160.23  118.14
  -6   0   0 5219.65  114.60
   0  -6   0 5189.65  117.56
   0   6   0 5132.48  119.88
   0  -6   0 5163.71  118.40
  -6   6   0 5259.50  118.12
  -6   6   0 5031.93  119.72
   0  -6   0 5159.72  115.06
  -6   6   0 5251.09  111.94
  -6   0   0 5227.91  115.01
  -6   6   3  201.93   11.50
   6   0   3  211.96   12.23
   0   6  -3  200.75    6.52
  -6   0  -3  208.29    9.28
  -6   6   3  192.70    9.04
  -6   0  -3  200.51    9.76
  -6   6   3  226.91   10.88
   0   6  -3  180.86   11.30
  -6   6   3  169.88    9.48
  -6   0  -3  189.76   10.86
  -6   6   3  187.51    7.07
   0  -6   3  199.42    8.81
  -6   6   3  206.66    9.37
  -6   6   6  171.82   11.01
  -6   6   6  155.49   10.29
   6   0   6  150.99   11.08
  -6   0  -6  187.59    9.88
  -6   6   6  171.23    5.98
  -6   6   6  165.01    9.98
  -6   0  -6  176.67   10.32
  -6   6   6  165.81    8.22
   0   6  -6  156.06    9.79
  -6   0  -6  178.48   10.68
   0   6  -6  173.22   11.18
   0   6  -6  174.97    5.70
  -6   6   6  153.54    8.98
  -6   6   6  155.90    7.16
  -6   6   6  162.56    9.53
  -6   6   9    9.59    5.08
  -6   6   9   10.56    4.84
   6   0   9    6.29    5.72
  -6   6   9    3.91    2.61
  -6   0  -9    7.39    4.27
  -6   0  -9   -0.82    5.07
  -6   6   9    6.55    3.18
   0   6  -9   16.90    4.72
   0   6  -9   15.31    5.54
  -6   6   9   11.30    1.78
  -6   0  -9    4.12    4.30
   0  -6   9    4.49    5.12
   6   0   9    6.92    5.06
   0   6  -9    7.35    2.85
  -6   6   9    7.30    3.99
  -6   6  12    0.53    3.66
   0   6 -12    0.75    4.48
  -6   6  12    2.13    3.39
   0   6 -12    2.69    3.68
  -6   6  12    6.18    4.95
  -6   0 -12    6.47    4.98
   6  -6 -12    2.00    3.84
   0  -6  12   -2.52    5.00
  -6   6  12   -0.65    4.52
   6   0  12    3.27    5.20
  -6   6  12   -3.61    4.84
   0  -6  12   -0.82    4.79
  -6   6  15   71.41    7.28
   6   0  15   58.42    7.62
   0  -6  15   79.99    9.27
   6  -6 -15   70.96    7.29
   0   6 -15   72.94    4.64
   0  -6  15   55.81    7.30
  -6   6  15   67.70    7.61
   6   0  15   76.58    9.91
   6  -6 -15   67.80    5.86
  -6   6  15   62.47    6.85
  -6   0 -15   71.89    9.39
   0   6 -15   75.13    9.57
   0   6 -15   62.67    6.91
  -6   6  15   61.46    8.22
  -6   6  15   63.71    7.27
   6   0  18 1029.10   31.21
   6   0  18 1028.20   36.08
  -6   6  18  990.89   32.33
  -6   6  18  957.42   29.58
   6  -6 -18 1011.51   28.47
  -6   0 -18  929.76   35.52
   0   6 -18  988.26   36.23
   0  -6  18 1060.42   31.32
  -6   6  18  962.07   34.33
   0  -6  18  945.84   34.54
  -6   6  21    7.10    7.13
   0   6 -21   14.59    9.31
   6   0  21   15.50    8.16
   0  -6  21   16.53    5.64
  -6   0 -21   15.16    9.17
   0  -6  21   11.51    7.61
   6   0  21   10.46    5.86
   6   0  24   52.58   10.71
   0  -6  24   48.61   11.18
   0   6 -24   37.14   10.60
  -6   6  24   57.74   10.64
   0   6 -27    1.40   10.98
   6   0  27    3.56    9.04
  -6   6  27    7.65    9.93
  -6   0 -27    1.22    9.22
   0  -6  27  -15.42   10.82
   6   0  30   11.45   10.14
  -6  -1 -29   17.94   10.97
   6   1  26 1051.94   38.79
  -1   7 -26 1023.80   40.72
  -7   6  26 1041.31   38.45
   1  -7  26 1146.87   42.22
  -7   6  23  256.99   16.64
   7  -6 -23  264.54   20.23
   6   1  23  281.58   13.60
  -1   7 -23  260.29   19.22
   1  -7  23  246.38   12.95
   6   1  23  220.67   17.11
   1  -7  23  257.05   18.64
   6   1  20   52.42    7.87
   6   1  20   38.25   10.10
   7  -6 -20   79.24   12.10
  -7   6  20   49.57    8.78
  -7   6  20   56.32   10.46
   1  -7  20   51.25    9.96
  -6  -1 -20   45.24   10.29
   1  -7  20   65.39    8.19
  -1   7 -20   53.87   11.47
   6   1  17  510.04   20.22
   6   1  17  496.39   23.83
  -7   6  17  496.91   20.08
   7  -6 -17  440.74   22.52
  -1   7 -17  474.16   18.27
  -7   6  17  444.70   21.64
  -1   7 -17  467.10   23.92
   1  -7  17  456.15   21.47
  -6  -1 -17  481.22   23.35
   1  -7  17  476.70   20.09
  -7   6  17  485.67   19.28
   1  -7  14   17.66    6.33
  -7   6  14   14.67    5.96
   1  -7  14   21.12    6.16
  -7   6  14   15.49    6.17
  -1   7 -14   14.31    3.91
   7  -6 -14    9.61    6.64
  -7   6  14   15.55    4.18
  -7   6  14   22.50    6.14
   6   1  14   12.28    6.13
  -6  -1 -14   18.26    6.68
  -7   6  14   20.33    6.50
  -1   7 -14   18.31    5.10
  -7   6  14   17.48    5.58
  -7   6  11  153.40   10.27
   1  -7  11  137.83   11.09
   7  -6 -11  155.49   11.75
  -7   6  11  138.27   10.46
  -7   6  11  142.87    8.06
  -7   6  11  139.11    7.48
  -1   7 -11  129.09   10.31
  -7   6  11  149.53   10.56
  -1   7 -11  122.56    7.24
  -1   7 -11  166.33   12.72
   1  -7  11  156.38   10.50
  -7   6  11  148.99   10.25
  -6  -1 -11  136.54   11.22
  -7   6   8 2204.23   56.99
  -7   6   8 2093.97   57.68
  -7   6   8 2054.50   55.66
  -6  -1  -8 2233.04   56.11
  -7   6   8 2203.82   50.68
   7  -6  -8 2138.64   58.50
   1  -7   8 2230.26   59.88
  -6  -1  -8 2238.82   57.15
  -7   6   8 2162.76   51.84
  -1   7  -8 2148.23   57.19
  -1   7  -8 2147.67   49.93
  -1   7  -8 2108.50   59.41
  -7   6   8 2180.60   50.43
  -7   6   8 2096.77   56.16
  -6  -1  -8 2142.33   58.28
   1  -7   5 2503.04   56.96
  -7   6   5 2501.63   57.23
   6   1   5 2508.31   61.28
  -7   6   5 2559.49   62.83
  -7   6   5 2243.20   52.36
  -7   6   5 2555.63   61.56
  -7   6   5 2585.85   64.19
  -1   7  -5 2441.57   56.23
  -6  -1  -5 2485.85   57.68
   7  -6  -5 2434.80   63.19
   1  -7   5 2574.58   66.17
  -6  -1  -5 2436.35   60.30
  -7   6   5 2504.23   57.36
  -1   7  -5 2494.90   63.99
   1  -7   5 2553.21   62.32
  -7   6   5 2416.13   57.84
  -7   6   5 2638.59   61.34
  -6  -1  -5 2668.39   63.64
  -7   6   5 2652.25   61.82
  -1   7  -5 2307.60   52.05
  -7   6   2    5.18    4.34
  -1   7  -2    4.30    2.16
  -6  -1  -2    2.47    2.73
  -6  -1  -2   -1.46    3.40
  -7   6   2    9.28    2.96
  -7   6   2    3.51    3.23
   1  -7   2    6.88    4.95
  -1   7  -2   10.47    4.53
  -6  -1  -2    4.62    3.67
   1  -7   2    4.38    2.63
  -7   6   2    4.17    2.41
   6   1   2    3.54    4.83
  -6  -1   1  991.59   30.78
  -7   6  -1 1006.78   32.34
  -7   6  -1  978.42   31.20
   6   1  -1 1002.97   30.87
  -7   6  -1 1048.35   30.63
   1  -7  -1  932.05   33.57
  -7   6  -1  976.14   29.79
   6   1  -1  971.09   29.45
  -6  -1   1  982.81   26.23
  -1   7   1  972.61   30.93
  -6  -1   1  964.33   30.65
  -1   7   1  958.51   30.44
   1  -7  -1  994.19   29.77
  -7   6  -1 1005.57   30.44
   1  -7  -1  963.87   25.92
  -7   6  -1 1004.82   25.48
  -6  -1   1  974.36   25.66
  -1   7   4   88.53    5.53
  -6  -1   4   94.03    8.01
   1  -7  -4   92.10    7.04
  -7   6  -4   95.48    9.17
   6   1  -4   90.44    7.25
  -7   6  -4   67.11    7.82
  -7   6  -4   89.75    7.96
  -7   6  -4   92.30    8.19
   1  -7  -4   68.77    8.50
   6   1  -4   95.06    6.67
  -6  -1   4   96.93    5.05
   1  -7  -4   99.90    7.95
  -1   7   4   90.03    8.21
  -1   7   4   86.09    7.61
   1  -7  -4   84.84    7.55
  -7   6  -4  100.14    8.86
  -6  -1   4   70.74    7.56
   1  -7  -4   91.02    6.05
  -7   6  -4   96.52    5.74
  -6  -1   4   88.61    6.82
   7  -6   7  360.65   12.65
  -1   7   7  345.16   12.93
  -7   6  -7  408.60   17.53
   1  -7  -7  343.96   14.44
  -7   6  -7  365.69   16.56
  -7   6  -7  367.54   15.93
   6   1  -7  361.41   14.18
   1  -7  -7  350.76   12.84
   6   1  -7  358.53   13.67
   1  -7  -7  381.82   18.46
   6   1  -7  380.68   12.41
  -1   7   7  361.46   17.35
  -6  -1   7  347.41   14.59
  -6  -1   7  355.55   15.60
   1  -7  -7  372.34   15.05
  -7   6  -7  364.88   17.66
  -7   6  -7  375.35   13.56
   1  -7  -7  372.25   14.22
  -7   6  -7  377.17   11.01
  -7   6 -10 1272.95   35.85
   1  -7 -10 1292.81   36.82
   7  -6  10 1323.12   34.46
  -1   7  10 1263.29   34.77
  -7   6 -10 1315.36   38.61
   7  -6  10 1280.18   33.20
   1  -7 -10 1323.66   36.82
  -7   6 -10 1359.39   38.82
   6   1 -10 1311.98   33.75
   6   1 -10 1261.99   30.78
  -1   7  10 1282.52   40.64
  -6  -1  10 1299.03   37.24
   1  -7 -10 1284.81   34.85
   6   1 -10 1306.40   35.68
   1  -7 -10 1309.75   32.52
  -6  -1  10 1338.25   37.09
   1  -7 -10 1290.96   35.80
  -7   6 -10 1302.96   33.45
   1  -7 -10 1315.72   40.26
  -7   6 -10 1346.96   41.38
   7  -6  13 1993.21   49.88
   7  -6  13 2089.57   50.04
  -6  -1  13 2017.79   53.36
  -1   7  13 2004.01   50.43
   1  -7 -13 1991.31   50.78
   6   1 -13 2100.82   51.78
  -7   6 -13 2103.90   57.84
   1  -7 -13 2034.11   49.91
  -6  -1  13 2091.09   51.72
   1  -7 -13 2050.01   48.79
  -7   6 -13 1964.71   49.37
  -6  -1  13 1961.25   54.85
   1  -7 -13 1967.68   54.27
  -7   6 -13 1946.47   52.37
   6   1 -13 1776.63   43.09
  -1   7  13 1972.22   57.07
   1  -7 -16   47.11    5.96
   6   1 -16   66.55    7.95
   1  -7 -16   58.33    7.76
  -1   7  16   70.03   10.37
   7  -6  16   58.14    7.54
  -7   6 -16   53.09   10.13
  -7   6 -16   65.63    7.70
  -6  -1  16   44.39    9.06
  -7   6 -16   50.88    7.47
   1  -7 -16   56.74    8.05
   6   1 -16   48.03    7.85
   1  -7 -16   55.22    7.16
  -6  -1  16   48.16    8.43
  -1   7  19  323.41   20.66
   6   1 -19  312.47   14.46
   1  -7 -19  337.19   15.47
   6   1 -19  350.22   17.35
   1  -7 -19  359.08   17.63
   7  -6  19  336.59   16.55
  -6  -1  19  328.08   18.77
   1  -7 -22    6.92    8.10
   6   1 -22   -2.29    7.56
  -6  -1  22    1.39    9.58
  -7   6 -22   13.81    9.25
   7  -6  22   -2.12    8.03
  -7   6 -25  443.16   25.00
  -6  -1  25  426.85   24.97
   1  -7 -25  428.58   23.51
   6   1 -25  419.37   22.96
   7  -6  25  396.56   22.15
   7  -6  28   92.56   14.16
   5   2  27  596.27   27.47
  -7   5  27  577.48   27.32
   2  -7  27  647.03   29.90
  -2   7 -27  626.58   29.77
  -2   7 -24  817.73   33.86
   2  -7  24  821.81   33.33
  -7   5  24  772.78   30.93
   7  -5 -24  785.63   35.16
   5   2  24  822.31   32.58
   2  -7  21    4.83    8.43
  -7   5  21   23.74    8.25
  -2   7 -21   21.74    9.54
  -7   5  21   11.53    8.94
   7  -5 -21   12.58    8.90
   5   2  21   24.40    6.34
   2  -7  21   18.82    6.18
  -7   5  18    1.20    5.20
  -7   5  18    4.42    6.46
   7  -5 -18   -6.08    7.30
  -7   5  18    2.69    6.25
  -2   7 -18   -8.96    7.62
   5   2  18    0.75    5.36
   2  -7  18    5.31    6.48
  -7   5  18    6.12    5.57
   2  -7  18    1.57    5.31
  -7   5  15 2428.90   61.33
  -2   7 -15 2471.61   58.62
   7  -5 -15 2548.38   67.84
  -7   5  15 2409.66   65.85
  -2   7 -15 2446.06   61.56
  -7   5  15 2424.15   63.14
   2  -7  15 2447.68   65.16
  -7   5  15 2453.10   63.08
   2  -7  15 2549.53   64.59
  -2   7 -12   87.75    7.15
  -7   5  12   97.34    8.84
  -7   5  12   97.73    7.67
   2  -7  12  105.83    8.89
  -2   7 -12   88.39    6.71
  -7   5  12   90.75    7.86
   2  -7  12   77.21    8.25
   7  -5 -12   91.51    9.46
  -7   5  12  105.30    9.09
  -2   7 -12   96.17   10.21
  -7   5   9 2794.44   69.46
   7  -5  -9 2781.72   72.49
  -7   5   9 2853.96   64.06
  -5  -2  -9 2758.84   71.27
  -7   5   9 2831.43   67.13
   2  -7   9 2854.09   69.67
  -2   7  -9 2812.24   73.96
  -7   5   9 2864.13   70.65
   2  -7   9 2785.09   73.12
  -7   5   9 2775.34   71.96
  -7   5   9 2918.19   71.42
  -7   5   6 1784.98   47.66
  -7   5   6 1711.72   48.64
  -7   5   6 1666.68   45.87
   2  -7   6 1779.26   50.28
   7  -5  -6 1769.35   48.74
  -5  -2  -6 1750.95   46.42
   5   2   6 1745.95   50.44
  -7   5   6 1742.75   41.34
  -5  -2  -6 1750.55   46.32
   5   2   6 1728.60   46.35
  -2   7  -6 1737.60   48.79
  -7   5   6 1773.51   41.85
  -7   5   6 1792.54   47.14
   2  -7   6 1691.74   47.27
  -7   5   3  180.70   11.06
   2  -7   3  152.21   10.07
  -7   5   3  174.18   10.22
   5   2   3  162.29   10.68
  -2   7  -3  186.35   10.80
  -7   5   3  172.54    7.50
  -5  -2  -3  176.57    9.39
  -5  -2  -3  173.03   11.18
  -2   7  -3  184.82   10.99
  -7   5   3  184.34   10.33
  -7   5   3  173.73    5.88
  -7   5   3  186.21    8.64
   2  -7   3  179.74    6.51
  -2   7  -3  168.87    7.85
  -5  -2  -3  164.67    6.81
  -7   5   0   64.10    5.03
  -7   5   0   64.08    7.44
   2  -7   0   70.96    8.19
  -7   5   0   68.08    8.15
   2  -7   0   68.59    3.81
   5   2   0   78.26    6.85
  -5  -2   0   60.95    5.48
  -2   7   0   57.89    6.49
  -2   7   0   81.90    7.29
  -5  -2   0   69.94    7.26
   2  -7   0   63.94    6.82
  -2   7   0   72.69    4.86
  -5  -2   0   71.58    3.87
  -7   5  -3 2392.19   63.77
  -7   5  -3 2557.61   65.66
  -7   5  -3 2417.82   62.71
   5   2  -3 2519.51   60.89
  -2   7   3 2489.65   63.91
  -5  -2   3 2553.14   58.57
   2  -7  -3 2541.64   59.89
  -7   5  -3 2528.89   59.59
   2  -7  -3 2539.75   57.58
   2  -7  -3 2511.26   61.64
  -2   7   3 2515.67   62.16
  -5  -2   3 2516.49   63.37
  -5  -2   3 2503.64   60.00
  -7   5  -3 2452.74   55.56
   2  -7  -3 2459.61   66.99
  -7   5  -6  368.81   16.62
  -7   5  -6  409.90   17.88
  -7   5  -6  390.68   14.38
  -7   5  -6  406.59   16.61
   5   2  -6  387.97   14.64
   2  -7  -6  390.78   18.37
   2  -7  -6  388.42   14.14
   5   2  -6  382.77   12.95
   2  -7  -6  381.68   14.40
   2  -7  -6  378.38   15.64
  -2   7   6  413.75   17.30
   5   2  -6  391.90   13.60
  -2   7   6  410.42   15.27
   2  -7  -6  406.94   15.04
  -5  -2   6  373.15   16.07
  -7   5  -6  390.28   12.22
   7  -5   6  381.85   13.69
  -2   7   6  389.03   12.52
  -5  -2   6  407.44   14.68
   7  -5   9  650.95   20.41
   2  -7  -9  685.29   25.02
  -7   5  -9  623.47   23.31
  -7   5  -9  641.44   23.23
   5   2  -9  669.17   19.48
  -7   5  -9  667.17   23.27
   7  -5   9  616.39   24.09
  -5  -2   9  638.64   21.36
   2  -7  -9  636.88   21.06
   2  -7  -9  640.69   22.45
   5   2  -9  629.06   18.56
  -2   7   9  640.26   24.30
   2  -7  -9  658.43   21.01
   5   2  -9  655.77   19.81
  -5  -2   9  671.36   22.68
   2  -7  -9  636.69   20.23
  -7   5  -9  661.63   19.61
  -2   7   9  657.34   19.50
  -7   5  -9  628.13   21.44
   2  -7  -9  640.11   18.44
   7  -5  12 1506.60   40.63
  -7   5 -12 1503.37   42.93
   7  -5  12 1497.02   45.34
   5   2 -12 1532.03   36.39
   7  -5  12 1504.67   40.07
  -5  -2  12 1553.14   42.50
  -2   7  12 1473.98   39.86
  -7   5 -12 1536.54   42.79
  -2   7  12 1565.35   46.08
   5   2 -12 1445.06   37.11
   5   2 -12 1525.24   40.44
  -5  -2  12 1506.06   44.74
   2  -7 -12 1562.10   41.80
   2  -7 -12 1531.82   38.79
  -5  -2  12 1499.33   41.92
   2  -7 -12 1509.74   44.16
  -7   5 -12 1545.39   43.03
   2  -7 -12 1553.88   41.95
  -7   5 -12 1535.31   40.22
   2  -7 -12 1592.80   39.26
  -7   5 -15  275.51   13.79
   2  -7 -15  263.56   14.27
  -2   7  15  259.83   13.22
  -5  -2  15  277.26   15.04
   5   2 -15  265.81   10.10
   2  -7 -15  256.47   13.95
   5   2 -15  267.45   13.43
   2  -7 -15  275.30   10.45
  -5  -2  15  267.63   16.01
  -7   5 -15  265.06   13.17
  -7   5 -15  261.04   16.49
   2  -7 -15  289.16   12.95
   7  -5  15  253.26   13.16
  -2   7  15  236.25   15.73
   7  -5  15  272.18   15.66
   5   2 -18  765.19   21.68
   5   2 -18  799.87   27.63
   2  -7 -18  771.40   28.27
   2  -7 -18  753.68   19.62
   7  -5  18  735.12   28.59
   7  -5  18  788.14   27.59
  -5  -2  18  723.52   29.65
  -2   7  18  722.23   30.73
   2  -7 -18  826.20   26.91
  -2   7  21 1105.37   41.80
   7  -5  21 1077.00   37.01
   5   2 -21 1165.02   32.84
   5   2 -21 1086.58   29.83
   5   2 -21 1063.24   37.58
  -5  -2  21 1091.75   39.97
   2  -7 -21 1138.47   33.52
  -7   5 -21 1096.38   39.95
   5   2 -21 1120.62   37.29
   2  -7 -21 1128.07   38.66
   7  -5  21 1163.16   37.55
  -5  -2  24  644.01   29.81
   7  -5  24  617.64   24.90
   5   2 -24  568.19   26.07
   2  -7 -24  610.03   27.91
   7  -5  24  565.62   26.12
  -7   5 -24  541.93   27.34
   2  -7 -27   51.44   12.09
   5   2 -27   54.69   11.69
  -7   5 -27   85.12   13.44
   7  -5  27   55.35   12.33
  -7   4  28  488.55   25.64
  -4  -3 -28  488.05   22.36
   3  -7  28  537.20   27.02
   4   3  28  538.28   25.96
   7  -4 -25  197.11   18.23
  -7   4  25  209.14   16.76
   3  -7  25  203.01   17.17
  -3   7 -25  251.49   18.81
   4   3  22 1749.22   44.43
  -7   4  22 1654.81   50.89
   3  -7  22 1631.13   51.33
  -3   7 -22 1612.01   53.02
   7  -4 -22 1762.18   55.29
  -7   4  22 1610.58   53.03
   3  -7  19 1361.36   39.65
  -7   4  19 1355.24   38.41
   7  -4 -19 1382.25   45.56
  -7   4  19 1359.49   42.43
   3  -7  19 1457.21   44.03
  -3   7 -19 1391.86   45.93
  -7   4  19 1341.56   44.21
  -7   4  19 1397.00   36.45
   3  -7  16  141.16   10.23
   7  -4 -16  163.19   12.91
  -7   4  16  172.56   12.71
  -3   7 -16  147.17    8.54
  -7   4  16  146.73    9.00
  -7   4  16  170.64   11.70
   3  -7  16  170.52   11.80
   3  -7  16  152.45   10.77
  -7   4  16  156.53   10.57
  -7   4  13   42.90    5.71
  -3   7 -13   52.24    5.85
  -7   4  13   38.09    6.47
   3  -7  13   65.70    8.01
  -3   7 -13   57.60    8.58
   7  -4 -13   54.05    8.12
  -7   4  13   54.12    3.67
  -7   4  13   40.23    6.83
   3  -7  13   60.25    7.12
  -7   4  13   51.35    6.60
   3  -7  13   46.99    6.06
   4   3  10 1220.64   40.56
  -7   4  10 1177.20   34.04
  -3   7 -10 1183.16   33.23
   3  -7  10 1289.23   33.04
  -7   4  10 1233.02   34.04
   3  -7  10 1235.72   34.46
  -3   7 -10 1218.21   38.73
  -7   4  10 1233.87   30.72
  -7   4  10 1221.77   36.92
   3  -7  10 1250.03   37.97
  -7   4  10 1205.36   36.40
   7  -4 -10 1234.79   37.51
  -7   4   7 1853.58   50.05
   3  -7   7 1909.91   44.89
   4   3   7 1880.23   49.26
  -4  -3  -7 2003.93   50.03
  -7   4   7 1904.08   52.15
   3  -7   7 1840.25   52.55
  -7   4   7 1899.72   48.76
  -7   4   7 1836.26   41.52
   4   3   7 1927.78   53.55
   7  -4  -7 1913.46   51.30
  -4  -3  -7 1847.66   49.55
  -4  -3  -7 1922.47   50.96
  -3   7  -7 1980.91   52.39
   3  -7   7 1908.30   47.42
  -7   4   7 1885.74   46.36
   3  -7   7 1908.30   50.90
  -7   4   7 1931.66   49.12
   3  -7   4 3151.57   68.98
  -7   4   4 3222.12   75.05
   4   3   4 3165.95   75.63
   3  -7   4 3123.94   68.49
  -7   4   4 3053.63   79.23
  -7   4   4 3062.66   75.71
  -3   7  -4 3196.20   74.09
  -4  -3  -4 3143.43   69.68
   7  -4  -4 3160.88   79.56
   4   3   4 3121.00   78.40
  -4  -3  -4 3176.68   75.50
  -3   7  -4 3163.56   77.30
  -7   4   4 3079.04   69.98
  -7   4   4 3241.83   75.86
  -3   7  -4 3166.04   78.01
  -7   4   4 3117.42   71.45
  -7   4   4 3066.59   76.63
   3  -7   4 3141.73   76.96
   7  -4  -1 2051.23   54.50
   3  -7   1 1916.55   54.63
  -7   4   1 1915.50   53.72
  -7   4   1 1967.63   50.73
  -3   7  -1 1987.02   47.95
   7  -4  -1 1934.18   51.70
   4   3   1 1932.38   51.10
  -3   7  -1 1989.78   51.45
  -4  -3  -1 1993.86   48.97
  -7   4   1 1897.66   50.04
  -3   7  -1 1962.42   50.84
  -4  -3  -1 1961.53   51.67
  -3   7  -1 1928.68   44.98
  -7   4   1 1969.46   49.00
   3  -7   1 1974.11   50.72
  -4  -3   2  854.44   28.10
   3  -7  -2  946.28   32.06
  -7   4  -2 1016.09   32.06
   7  -4   2  930.50   31.34
   7  -4   2  943.51   29.84
  -7   4  -2  978.20   28.67
   3  -7  -2  952.25   25.05
  -7   4  -2  950.56   23.68
  -4  -3   2  951.83   26.00
   4   3  -2  916.38   27.52
  -3   7   2  931.23   28.96
  -7   4  -2  932.58   26.80
  -4  -3   2  943.33   29.18
  -3   7   2  996.77   27.96
  -3   7   2  947.35   23.47
  -4  -3   2  892.48   24.83
  -3   7   2  939.34   25.81
   3  -7  -2  981.10   27.96
   3  -7  -5   17.85    5.49
  -7   4  -5    7.73    4.93
  -3   7   5   10.15    2.72
  -4  -3   5    5.99    2.90
  -7   4  -5   17.14    4.91
   7  -4   5   15.14    4.83
   4   3  -5    8.75    2.07
   3  -7  -5   12.38    3.68
   4   3  -5    7.85    3.31
  -3   7   5   11.35    4.22
   3  -7  -5   14.04    4.77
  -3   7   5    5.79    1.82
   7  -4   5   10.34    3.67
  -4  -3   5    4.86    3.94
   3  -7  -5    9.76    3.69
  -7   4  -5    9.60    3.34
  -4  -3   5   10.26    4.65
  -3   7   5    5.31    3.19
  -7   4  -5   10.36    2.81
   3  -7  -5    9.90    3.54
  -7   4  -8  372.37   17.37
   3  -7  -8  404.97   18.46
   3  -7  -8  413.84   14.80
  -7   4  -8  414.24   15.95
  -3   7   8  424.91   13.21
   3  -7  -8  406.00   15.82
   4   3  -8  422.02   14.48
   3  -7  -8  378.50   15.78
  -3   7   8  375.40   16.88
   4   3  -8  400.79   12.94
  -4  -3   8  402.76   16.70
  -7   4  -8  418.01   14.23
  -3   7   8  400.95   14.35
  -4  -3   8  400.78   14.73
   7  -4   8  422.18   15.42
   3  -7  -8  410.92   14.03
   3  -7 -11 2659.18   62.31
   3  -7 -11 2583.67   67.45
  -7   4 -11 2626.30   66.52
  -4  -3  11 2611.57   64.64
   4   3 -11 2606.13   59.58
   7  -4  11 2436.58   68.27
  -3   7  11 2565.12   62.11
  -7   4 -11 2605.66   66.02
   7  -4  11 2658.78   64.44
   3  -7 -11 2576.26   65.04
   4   3 -11 2536.28   61.81
  -3   7  11 2597.95   67.64
   4   3 -11 2687.86   69.38
  -4  -3  11 2568.46   65.41
   3  -7 -11 2593.59   59.95
   3  -7 -11 2577.96   65.21
   4   3 -11 2631.88   62.22
   3  -7 -11 2623.47   64.10
  -7   4 -11 2528.26   63.10
  -7   4 -14  235.00   13.78
  -3   7  14  251.65   12.26
   3  -7 -14  255.84   13.97
  -7   4 -14  250.82   13.21
   4   3 -14  234.12   10.59
   4   3 -14  254.53   15.46
   3  -7 -14  255.22   13.23
  -7   4 -14  232.25   12.42
  -4  -3  14  276.06   15.69
   4   3 -14  230.14   11.98
   3  -7 -14  251.12   12.01
   7  -4  14  214.42   14.42
  -3   7  14  232.05   14.54
   3  -7 -14  249.28    7.56
   4   3 -14  217.57   11.71
   3  -7 -14  247.89   13.41
   4   3 -17 1491.74   45.94
  -4  -3  17 1460.86   45.82
   3  -7 -17 1480.67   42.05
  -7   4 -17 1490.83   40.65
   7  -4  17 1461.69   45.20
   7  -4  17 1482.87   42.96
  -3   7  17 1436.34   45.61
   4   3 -17 1431.77   38.30
   4   3 -17 1409.92   41.76
   3  -7 -17 1391.49   43.47
   4   3 -20  603.52   21.06
   4   3 -20  673.73   27.81
  -4  -3  20  674.56   28.58
  -7   4 -20  699.14   28.97
   7  -4  20  626.46   26.42
   7  -4  20  678.83   26.84
  -3   7  20  673.72   26.83
  -3   7  20  633.87   28.37
   3  -7 -20  689.34   27.81
   3  -7 -20  667.09   23.35
   4   3 -23  199.79   15.43
  -4  -3  23  209.03   17.24
  -7   4 -23  208.28   16.70
   4   3 -23  194.33   11.13
   7  -4  23  186.56   15.57
  -3   7  23  195.93   15.71
   3  -7 -23  209.66   17.13
   7  -4  23  179.42   14.16
   7  -4  26   37.12   11.31
  -3   7  26   20.36   10.08
  -4  -3  26   -4.78   10.69
   4   3 -26   34.53   10.39
   3  -7 -26   22.06   10.98
  -7   4 -26   27.77   10.99
   7  -4  26   30.67    9.63
   4   3 -26   33.91    9.98
  -4   7 -26    9.96   10.31
   7  -3 -26    9.54   10.58
  -7   3  26    1.34    9.68
   4  -7  26   -6.37    9.06
   4  -7  23   18.56    9.19
  -7   3  23   26.97    9.66
   3   4  23   20.68    5.35
  -4   7 -23   16.38    9.65
   7  -3 -23   22.94   10.51
   4  -7  20   77.74   10.49
  -7   3  20   92.16    8.36
  -7   3  20   79.20   11.37
  -4   7 -20  100.01   12.23
   7  -3 -20  112.63   12.68
  -7   3  20   75.54   10.50
  -7   3  17  529.80   23.03
   4  -7  17  550.71   22.09
  -7   3  17  494.96   21.89
   7  -3 -17  483.50   22.61
  -3  -4 -17  486.85   23.19
   4  -7  17  513.19   20.13
  -4   7 -17  514.75   18.20
  -7   3  17  527.26   16.97
  -7   3  17  545.39   20.10
   4  -7  17  494.62   20.57
   3   4  14  887.39   34.50
   7  -3 -14  891.28   30.51
  -3  -4 -14  863.36   30.87
   4  -7  14  888.26   27.00
  -7   3  14  880.89   23.30
  -4   7 -14  835.67   31.99
  -7   3  14  923.51   30.67
  -7   3  14  897.63   25.65
  -4   7 -14  878.14   26.23
  -7   3  14  871.85   29.13
   4  -7  14  866.23   28.51
  -7   3  14  881.71   28.95
   4  -7  14  858.53   29.38
   7  -3 -11 1126.49   35.41
  -7   3  11 1181.00   32.40
  -4   7 -11 1128.62   32.39
   7  -3 -11 1269.91   36.69
  -7   3  11 1127.40   35.23
  -3  -4 -11 1128.26   35.10
  -4   7 -11 1108.37   37.15
  -7   3  11 1182.46   30.42
   4  -7  11 1218.40   36.95
  -7   3  11 1184.27   36.14
  -3  -4 -11 1145.61   35.80
   4  -7  11 1175.99   31.27
   4  -7  11 1205.21   33.53
  -7   3  11 1135.61   33.51
   3   4   8   46.98    5.92
   4  -7   8   41.67    4.85
  -7   3   8   40.70    5.04
   7  -3  -8   36.34    6.29
  -4   7  -8   36.42    5.50
  -7   3   8   41.06    5.53
   4  -7   8   52.97    7.48
   7  -3  -8   42.85    6.36
  -3  -4  -8   37.37    5.79
   4  -7   8   44.27    3.65
  -7   3   8   44.21    4.87
  -3  -4  -8   42.18    6.69
  -4   7  -8   46.48    7.02
  -3  -4  -8   44.15    6.02
  -7   3   8   42.45    6.00
   3   4   5  235.89   11.36
  -7   3   5  252.20   11.89
   7  -3  -5  260.79   14.10
  -3  -4  -5  228.31   11.81
  -7   3   5  215.76   11.42
   7  -3  -5  233.53   12.28
   3   4   5  240.66   13.24
   4  -7   5  258.90   14.33
  -3  -4  -5  253.14   11.98
   4  -7   5  233.12   12.60
  -3  -4  -5  232.95   12.38
  -4   7  -5  216.76   12.30
  -7   3   5  230.71    9.93
  -7   3   5  237.16   11.30
   4  -7   5  236.40    9.22
  -7   3   5  245.14   12.25
   7  -3  -2    4.09    3.56
  -7   3   2   13.83    4.53
  -7   3   2    5.55    3.95
  -4   7  -2    5.57    3.32
  -7   3   2    6.27    2.63
  -4   7  -2    1.99    3.25
  -3  -4  -2    3.82    3.66
   3   4   2    7.98    4.08
  -7   3   2    6.33    3.49
  -3  -4  -2   12.54    3.70
  -4   7  -2    9.18    3.90
   4  -7   2    5.17    4.56
   7  -3  -2    3.68    4.07
   7  -3   1  753.93   26.78
  -7   3  -1  697.84   23.87
   7  -3   1  708.69   24.65
   4  -7  -1  721.87   19.03
  -3  -4   1  732.38   23.51
  -7   3  -1  751.56   23.14
  -7   3  -1  727.64   23.15
  -3  -4   1  716.24   21.95
  -4   7   1  771.58   24.13
   3   4  -1  706.71   23.45
  -4   7   1  736.13   22.04
  -4   7   1  750.36   22.96
  -3  -4   1  742.61   24.38
  -3  -4   1  741.79   19.03
  -4   7   1  748.92   20.35
   4  -7  -1  711.47   22.93
   4  -7  -1  752.40   27.34
  -7   3  -4 2341.28   55.67
  -3  -4   4 2247.86   55.90
  -4   7   4 2024.53   47.49
   7  -3   4 2273.73   54.39
  -3  -4   4 2257.46   51.12
   4  -7  -4 2224.90   60.06
   7  -3   4 2398.41   59.37
   4  -7  -4 2268.12   51.15
  -7   3  -4 2250.62   52.18
  -7   3  -4 2286.32   55.89
  -4   7   4 2201.10   55.87
   3   4  -4 2226.97   54.88
   3   4  -4 2288.92   58.97
  -4   7   4 2333.05   53.55
  -3  -4   4 2233.76   56.53
  -4   7   4 2218.83   52.06
   4  -7  -4 2182.91   53.53
  -4   7   4 2276.27   53.92
  -4   7   7  796.44   21.30
  -7   3  -7  852.97   26.42
   7  -3   7  833.39   25.33
   4  -7  -7  840.77   29.18
   7  -3   7  853.61   28.97
  -7   3  -7  836.13   23.86
   7  -3   7  825.62   28.99
   4  -7  -7  866.70   23.04
   4  -7  -7  780.40   25.93
   3   4  -7  818.04   24.86
  -4   7   7  841.88   26.68
   4  -7  -7  842.42   25.35
  -4   7   7  812.28   22.61
  -3  -4   7  852.35   26.98
  -3  -4   7  829.94   23.48
  -4   7   7  811.60   23.77
   4  -7  -7  864.76   23.45
   3   4  -7  852.33   21.02
   7  -3  10    9.40    5.22
   4  -7 -10    6.36    5.00
   4  -7 -10    7.36    4.34
   3   4 -10    5.38    3.08
   4  -7 -10    7.79    4.18
  -4   7  10    7.58    4.55
   3   4 -10    3.27    3.33
   3   4 -10    2.58    3.42
  -4   7  10   14.42    4.35
  -7   3 -10    9.14    4.13
   4  -7 -10    7.70    3.98
  -3  -4  10   11.61    5.06
   3   4 -10    7.84    5.40
  -7   3 -10   13.53    4.78
  -4   7  10    7.10    3.27
   7  -3  10    8.88    4.65
   4  -7 -13    5.26    5.44
  -7   3 -13    3.89    5.02
   3   4 -13   10.61    6.53
   3   4 -13    1.15    3.84
   4  -7 -13    5.28    4.72
  -4   7  13    1.72    5.06
   3   4 -13    4.81    4.31
   4  -7 -13    1.18    4.28
   4  -7 -13    7.61    4.99
  -3  -4  13    2.89    5.41
   4  -7 -13    5.86    5.40
  -7   3 -13    9.70    5.61
  -4   7  13    1.71    4.33
   3   4 -13    2.76    1.90
   7  -3  13    3.20    6.05
  -7   3 -13    0.65    5.04
   7  -3  16    8.93    7.74
  -7   3 -16    6.45    5.19
   4  -7 -16   16.82    6.06
   4  -7 -16   18.50    7.10
  -4   7  16   10.88    6.29
   3   4 -16    8.64    4.71
  -3  -4  16    3.23    6.36
  -4   7  16    7.95    5.58
   3   4 -16   15.97    7.54
  -7   3 -16   14.47    6.68
  -4   7  16    9.93    5.14
   3   4 -19  208.31   11.81
  -4   7  19  220.46   11.50
   3   4 -19  250.33   16.95
  -3  -4  19  223.35   15.92
   7  -3  19  233.96   16.01
   4  -7 -19  241.59   15.99
  -4   7  19  241.86   16.21
  -4   7  19  244.73   14.79
  -3  -4  22 1227.29   34.36
   4  -7 -22 1220.68   42.78
   3   4 -22 1217.24   36.09
   3   4 -22 1228.82   41.94
  -3  -4  22 1184.85   42.69
   7  -3  22 1225.19   40.63
  -4   7  22 1219.75   40.58
   7  -3  22 1190.55   40.88
  -7   3 -22 1226.43   42.39
   3   4 -25  107.50   13.37
   4  -7 -25   89.38   13.82
   7  -3  25   82.55   11.34
  -7   3 -25  111.57   14.07
   3   4 -25   87.29    9.31
  -4   7  25   89.93   12.32
   7  -3  25   87.71   13.00
  -7   3 -28    5.52   10.81
   3   4 -28   36.01   10.59
   7  -3  28   17.00    9.60
  -4   7  28   27.73   11.09
   7  -3  28   26.10   12.15
  -7   2  27   40.51   11.93
   5  -7  27   26.64   11.22
  -5   7 -27   53.68   12.46
   7  -2 -27   70.69   14.27
   7  -2 -24 1190.00   43.58
   5  -7  24 1226.16   41.23
  -5   7 -24 1219.21   43.45
  -7   2  24 1172.89   42.28
  -5   7 -21  716.97   30.02
   5  -7  21  720.61   27.65
  -7   2  21  633.81   28.24
   7  -2 -21  623.94   28.30
  -2  -5 -21  696.57   23.31
  -7   2  18  271.63   14.05
  -7   2  18  264.11   16.49
   5  -7  18  281.74   15.51
  -5   7 -18  277.43   13.96
   7  -2 -18  266.74   16.35
  -2  -5 -18  255.28   16.91
   7  -2 -15  376.82   18.47
  -2  -5 -15  388.93   17.55
  -7   2  15  384.71   13.77
  -5   7 -15  406.11   20.54
   5  -7  15  385.78   17.23
  -7   2  15  397.91   18.34
   2   5  15  366.09   21.43
  -5   7 -15  389.84   15.91
   5  -7  15  375.75   15.59
  -2  -5 -15  411.25   19.90
  -2  -5 -15  390.40   16.37
   7  -2 -15  393.80   17.15
  -5   7 -15  393.46   16.97
   7  -2 -12 3022.75   76.22
   2   5  12 3012.77   81.15
  -5   7 -12 3065.50   73.44
   5  -7  12 2972.90   70.83
  -2  -5 -12 2953.03   76.65
   7  -2 -12 3001.37   76.04
  -2  -5 -12 3079.91   72.73
   5  -7  12 2958.60   77.35
   5  -7  12 3082.53   73.40
  -7   2  12 2984.94   75.10
  -7   2  12 3000.77   71.06
  -2  -5 -12 3025.25   75.30
  -5   7 -12 2927.89   79.19
  -5   7  -9 1037.57   31.05
   7  -2  -9 1117.61   34.75
   5  -7   9 1154.71   35.82
   2   5   9 1044.53   31.02
  -5   7  -9 1014.04   34.46
  -2  -5  -9 1052.84   32.34
  -7   2   9 1071.27   29.83
   5  -7   9 1079.35   29.36
  -7   2   9 1098.37   31.67
  -2  -5  -9 1045.24   32.46
   5  -7   9 1065.35   27.07
  -5   7  -9 1115.58   33.13
   7  -2  -9 1048.71   32.39
   2   5   6  994.74   28.38
   5  -7   6  952.43   22.50
   5  -7   6 1004.72   33.05
   7  -2  -6  984.03   32.76
   7  -2  -6  958.61   29.58
  -5   7  -6  927.36   30.65
  -2  -5  -6 1002.00   29.52
  -2  -5  -6  950.80   29.46
  -7   2   6  960.32   28.22
  -5   7  -6 1026.28   31.90
  -2  -5  -6  967.67   29.86
  -5   7  -6  979.01   29.12
   7  -2  -6  957.98   28.74
   5  -7   6  963.47   25.17
  -2  -5  -6 1010.95   29.58
  -7   2   6  962.18   28.07
  -2  -5  -6  963.10   23.07
  -5   7  -3 4454.39  103.30
  -5   7  -3 4421.33  106.01
  -7   2   3 4564.88  104.43
  -2  -5  -3 4429.37  103.11
  -2  -5  -3 4490.41  103.38
  -7   2   3 4431.55   96.99
   2   5   3 4431.71  105.91
  -7   2   3 4431.29  102.09
  -2  -5  -3 4454.30  104.52
  -5   7  -3 4508.49  105.11
   7  -2  -3 4255.56  107.81
   5  -7   3 4354.34   96.82
  -5   7  -3 4521.25  103.77
   7  -2  -3 4294.01  103.92
   7  -2   0   46.64    7.54
   7  -2   0   53.04    6.63
  -7   2   0   56.15    4.80
  -5   7   0   49.61    6.92
   5  -7   0   54.66    7.38
  -5   7   0   74.10    6.56
   2   5   0   48.30    5.95
  -2  -5   0   48.91    5.44
  -7   2   0   61.30    6.10
  -2  -5   0   72.03    6.28
  -5   7   0   54.07    5.84
  -2  -5   0   54.10    2.27
  -5   7   0   55.66    6.07
  -7   2   0   53.58    5.92
  -7   2  -3  377.90   15.62
  -2  -5   3  385.96   14.99
  -7   2  -3  383.03   13.59
   5  -7  -3  353.68   17.87
   7  -2   3  349.79   16.49
  -7   2  -3  349.76   14.48
  -7   2  -3  383.33   14.99
   2   5  -3  356.24   15.06
  -5   7   3  380.14   15.00
   2   5  -3  401.88   17.50
  -5   7   3  366.36   13.65
  -2  -5   3  378.68   15.90
  -5   7   3  382.88   13.60
   5  -7  -3  375.79   10.40
  -5   7   3  396.11   14.80
   7  -2   6 4689.87  108.60
  -2  -5   6 4590.36  108.67
   5  -7  -6 4724.81  114.08
  -7   2  -6 4595.83  106.70
   7  -2   6 4675.78  112.97
   7  -2   6 4726.43  113.04
  -7   2  -6 4497.13  110.55
  -5   7   6 4641.79  102.73
  -7   2  -6 4618.49  110.05
  -5   7   6 4720.88  108.67
   2   5  -6 4675.46  108.94
   2   5  -6 4631.21  101.56
  -5   7   6 4624.33  108.01
  -5   7   6 4638.26  104.68
   2   5  -6 4658.74  112.96
  -2  -5   6 4696.60  110.20
  -5   7   6 4804.70  111.43
   5  -7  -6 4874.42  110.75
   5  -7  -6 4773.84  104.17
  -5   7   6 4683.90  107.11
   7  -2   9 1142.09   33.33
   7  -2   9 1179.87   36.10
  -7   2  -9 1085.60   31.65
  -5   7   9 1153.82   34.44
   5  -7  -9 1137.98   34.63
  -7   2  -9 1061.93   35.67
  -5   7   9 1162.01   32.43
   2   5  -9 1108.38   32.60
  -5   7   9 1131.59   33.05
  -5   7   9 1136.21   27.08
   2   5  -9 1100.71   29.01
   5  -7  -9 1135.47   30.38
   5  -7  -9 1167.47   36.70
  -7   2  -9 1164.24   34.79
  -5   7   9 1168.14   29.95
   7  -2  12  123.87   10.10
  -5   7  12  137.10    9.72
  -5   7  12  116.78    7.79
   5  -7 -12  137.62   10.85
  -5   7  12  127.37    9.42
  -7   2 -12  102.41    9.45
  -5   7  12  131.91    8.44
   2   5 -12  139.00    9.20
   5  -7 -12  123.39    8.35
   5  -7 -12  133.15   10.46
   2   5 -12  108.31   10.80
   2   5 -12  120.29    7.58
  -5   7  12  120.64    9.08
   7  -2  12  116.72   11.04
   5  -7 -12  134.15    8.63
  -7   2 -12  122.27    9.30
   7  -2  15 2074.89   59.27
  -7   2 -15 1999.62   57.10
  -5   7  15 1888.02   52.38
  -5   7  15 2043.34   55.01
   5  -7 -15 2002.78   52.60
   2   5 -15 1982.33   53.00
   5  -7 -15 2071.48   52.38
   2   5 -15 2038.80   59.08
  -5   7  15 2159.09   53.05
   7  -2  15 2040.46   54.76
  -5   7  15 1982.44   55.06
   5  -7 -15 2027.04   56.83
  -5   7  15 2008.21   52.98
   2   5 -15 2007.58   51.40
   5  -7 -18  157.06   13.24
   2   5 -18  130.61   10.12
   2   5 -18  144.13   13.71
   7  -2  18  138.71   13.01
  -5   7  18  111.84   10.53
  -7   2 -18  127.86   12.25
  -5   7  18  150.72    9.76
  -5   7  18  136.08   11.83
   2   5 -21  108.86   10.03
   7  -2  21  103.61   12.47
   5  -7 -21  110.88   13.49
  -5   7  21   92.86   10.89
   2   5 -21  101.54   12.69
  -2  -5  21  109.17    9.07
  -2  -5  24  498.63   26.19
  -7   2 -24  521.87   25.65
   2   5 -24  493.48   25.37
   5  -7 -24  494.32   26.63
  -5   7  24  478.43   23.91
   7  -2  24  513.19   24.14
  -7   2 -27  933.28   36.63
   2   5 -27  960.47   37.11
   7  -2  27  921.36   34.56
  -5   7  27  958.75   36.70
  -1  -6 -28  110.49   14.20
   6  -7  28   77.98   12.96
  -7   1  25   -8.69   11.56
   7  -1 -25    7.11    9.86
  -6   7 -25    5.80    9.65
   6  -7  25   -2.35    9.37
  -7   1  22  290.99   18.98
   7  -1 -22  281.58   18.65
   6  -7  22  263.23   16.45
  -6   7 -22  293.20   19.52
   1   6  19  172.77   16.24
  -1  -6 -19  178.48   11.84
   7  -1 -19  169.55   13.49
   7  -1 -19  171.47   11.18
  -1  -6 -19  169.23   11.40
  -7   1  19  174.55   14.44
   6  -7  19  164.93   12.46
  -7   1  19  185.01   14.59
  -6   7 -16   42.24    9.42
   7  -1 -16   45.40    7.94
   1   6  16   74.22   11.21
  -1  -6 -16   32.43    6.67
  -7   1  16   41.01    5.87
  -1  -6 -16   44.84    8.58
   6  -7  16   50.26    7.05
   7  -1 -16   50.62    7.70
  -7   1  16   39.57    8.04
  -1  -6 -16   38.01    7.20
   6  -7  16   47.18    7.49
  -1  -6 -16   48.88    7.26
  -7   1  16   45.27    8.17
  -6   7 -13   13.75    7.12
   7  -1 -13    2.62    5.10
  -7   1  13    6.53    4.31
  -1  -6 -13    3.62    5.30
  -6   7 -13    9.73    5.68
   7  -1 -13    2.47    5.03
  -1  -6 -13    9.52    4.25
   1   6  13    1.25    6.19
  -1  -6 -13   11.81    6.26
   6  -7  13    1.49    3.81
  -7   1  13    6.15    5.18
  -1  -6 -13    5.53    4.29
  -7   1  13   10.51    5.65
   6  -7  13    1.80    4.29
   6  -7  10  751.25   21.32
  -1  -6 -10  793.15   26.26
   1   6  10  742.86   24.12
   6  -7  10  772.21   22.30
   7  -1 -10  743.17   27.50
  -6   7 -10  746.76   26.11
  -6   7 -10  758.07   25.14
   1   6  10  781.60   29.39
   7  -1 -10  776.27   25.55
  -6   7 -10  771.04   26.49
  -1  -6 -10  764.04   21.76
  -6   7 -10  751.55   28.51
  -1  -6 -10  785.47   25.70
  -7   1  10  779.21   24.19
  -7   1  10  776.57   26.21
  -7   1  10  779.29   26.20
  -1  -6 -10  794.25   22.12
  -6   7  -7   -2.36    5.16
  -6   7  -7   -2.47    5.39
   6  -7   7    5.32    6.10
  -7   1   7    0.61    4.31
  -1  -6  -7   -1.37    4.72
  -6   7  -7    2.01    4.33
   7  -1  -7    2.33    3.55
   7  -1  -7    2.65    3.80
  -1  -6  -7    2.04    2.05
   1   6   7    1.93    4.85
   6  -7   7    0.68    2.10
   1   6   7   -2.68    4.15
   7  -1  -7   -2.94    5.40
  -6   7  -7   -0.92    4.92
  -1  -6  -7    2.49    2.12
  -7   1   7   -2.83    4.10
  -1  -6  -7    5.21    3.91
  -1  -6  -7   -0.65    4.63
   6  -7   7    1.43    2.26
   1   6   4 1328.56   34.47
  -7   1   4 1352.98   37.83
  -6   7  -4 1318.45   39.01
  -1  -6  -4 1272.80   35.32
   7  -1  -4 1251.06   40.36
  -6   7  -4 1260.78   38.09
  -6   7  -4 1305.97   36.94
   7  -1  -4 1339.75   36.66
  -6   7  -4 1319.66   36.95
  -7   1   4 1239.02   29.52
  -1  -6  -4 1321.52   36.78
  -7   1   4 1302.18   36.81
  -1  -6  -4 1339.54   37.12
  -7   1   4 1319.13   34.49
  -7   1   4 1239.41   36.38
  -6   7  -4 1320.41   38.50
  -7   1   1    7.65    3.82
  -6   7  -1    6.30    4.01
  -6   7  -1   10.44    3.78
  -7   1   1   10.21    2.80
   1   6   1    2.33    4.05
  -1  -6  -1    7.25    4.40
   7  -1  -1   12.48    5.73
  -1  -6  -1    8.86    3.21
  -7   1   1    5.08    3.56
  -6   7  -1    7.35    4.32
   1   6   1    3.32    4.33
  -1  -6  -1   -0.69    4.75
   6  -7   1    8.71    5.41
  -6   7  -1    4.26    4.79
  -6   7  -1   -1.60    5.41
  -6   7  -1    4.03    4.17
   7  -1  -1   14.70    4.75
   7  -1   2  875.85   29.62
  -7   1  -2  937.69   26.49
  -7   1  -2  903.83   28.80
  -1  -6   2  861.39   26.06
   6  -7  -2  913.21   32.42
  -7   1  -2  890.40   25.90
  -6   7   2  933.54   28.57
   1   6  -2  913.76   28.88
  -6   7   2  944.31   27.31
  -6   7   2  885.85   26.37
  -1  -6   2  908.72   28.64
   7  -1   2  893.46   32.01
  -6   7   2  912.14   26.83
  -6   7   2  920.46   27.66
   1   6  -2  946.70   30.61
  -1  -6   5   34.18    4.75
   7  -1   5   35.66    5.80
  -6   7   5   24.62    6.25
  -6   7   5   29.33    6.56
   1   6  -5   31.12    2.27
   6  -7  -5   26.94    6.50
   7  -1   5   43.39    7.03
   6  -7  -5   37.54    5.93
  -7   1  -5   32.77    5.28
  -6   7   5   32.65    5.81
  -7   1  -5   24.01    5.02
  -6   7   5   31.44    4.83
   1   6  -5   23.65    4.95
  -7   1  -5   36.30    5.99
  -6   7   5   27.86    3.05
  -6   7   5   35.53    4.11
   1   6  -5   27.86    6.12
  -7   1  -5   31.44    5.28
  -6   7   5   44.45    5.38
   7  -1   8  500.96   21.43
  -6   7   8  532.04   20.52
   6  -7  -8  515.18   22.69
   7  -1   8  544.63   22.85
  -6   7   8  526.52   20.77
   6  -7  -8  513.98   20.70
  -7   1  -8  492.36   20.45
   1   6  -8  490.51   19.19
  -6   7   8  517.02   18.06
  -6   7   8  496.21   16.14
  -7   1  -8  531.77   20.75
  -6   7   8  509.56   14.20
   1   6  -8  481.16   21.48
   1   6  -8  491.51   14.16
  -6   7   8  506.11   18.50
  -7   1  -8  512.85   18.50
   6  -7  -8  503.81   14.93
  -6   7  11   40.87    7.04
   1   6 -11   45.66    4.65
  -6   7  11   40.40    6.11
   6  -7 -11   41.52    7.09
   1   6 -11   42.72    6.26
  -6   7  11   47.39    6.10
  -6   7  11   34.31    5.31
  -7   1 -11   53.75    7.81
   7  -1  11   46.83    7.36
  -6   7  11   43.39    4.88
  -7   1 -11   39.98    6.24
  -6   7  11   50.69    7.34
   6  -7 -11   39.94    5.10
  -1  -6  11   44.64    7.53
  -6   7  14  587.99   21.11
  -7   1 -14  589.75   24.68
  -6   7  14  627.34   20.77
  -1  -6  14  579.47   23.92
   6  -7 -14  588.35   20.34
   7  -1  14  615.95   23.44
  -6   7  14  646.65   22.06
   7  -1  14  563.13   25.63
   1   6 -14  586.96   16.28
  -6   7  14  585.87   21.90
  -6   7  14  587.61   21.46
   1   6 -14  572.00   22.11
   6  -7 -14  568.69   19.41
   1   6 -14  590.62   25.97
   6  -7 -14  584.58   24.19
   1   6 -14  600.06   19.40
  -6   7  14  569.27   22.77
  -6   7  17   25.06    6.21
   6  -7 -17   15.03    6.37
  -1  -6  17   21.33    7.64
   7  -1  17   18.47    6.34
  -1  -6  17   16.33    6.37
   7  -1  17    9.96    7.61
   6  -7 -17   31.40    8.53
  -6   7  17   23.40    6.32
   1   6 -17   18.90    6.57
   6  -7 -17   27.43    5.77
  -7   1 -17   20.10    7.82
   1   6 -17   22.02    8.75
   1   6 -17   25.25    5.89
  -6   7  17    8.15    6.59
  -6   7  17   21.90    6.60
  -7   1 -20  196.91   16.11
   6  -7 -20  214.12   16.65
   7  -1  20  242.56   13.63
   1   6 -20  210.00   17.07
   7  -1  20  248.41   17.35
  -6   7  20  208.63   14.23
  -1  -6  20  237.97   17.25
  -1  -6  20  220.56   12.83
  -1  -6  23   28.78    6.27
   1   6 -23   18.53   10.28
  -1  -6  23   40.12   11.35
  -6   7  23   24.18    8.89
   6  -7 -23   56.85   12.89
   7  -1  23   50.12   10.80
  -7   1 -26  286.17   19.77
   7  -1  26  297.70   19.22
   1   6 -26  282.80   20.61
  -6   7  26  282.72   19.36
  -1  -6  26  301.70   21.84
   6  -7 -26  257.92   21.38
   7  -1  29   64.74   11.98
   7  -7  26 1799.64   55.46
   0  -7 -26 1834.70   56.32
   7   0 -26 1859.85   58.12
  -7   0  23  606.31   28.62
   7  -7  23  604.28   25.60
   0  -7 -23  547.25   25.09
   7   0 -23  523.38   25.59
  -7   7 -23  572.47   28.10
   0   7  20  108.10   14.08
   7  -7  20  118.26   11.49
  -7   0  20  120.33   13.30
   0  -7 -20  113.70   10.52
   7   0 -20  133.97   10.59
  -7   0  20  107.63   12.31
   0  -7 -20  122.44   11.65
   7   0 -20   87.35   11.11
   7  -7  17  548.22   21.32
   7   0 -17  571.03   22.37
   0  -7 -17  560.28   22.60
   0  -7 -17  556.09   20.45
   7   0 -17  547.56   23.00
   0  -7 -17  586.20   21.93
   0  -7 -17  557.81   20.33
  -7   0  17  581.69   25.04
  -7   7 -17  528.55   25.79
   0   7  17  567.47   28.03
  -7   0  17  543.36   23.93
   7  -7  14  439.03   16.87
   0  -7 -14  495.69   20.84
   7  -7  14  448.55   16.68
   0   7  14  432.26   22.65
  -7   7 -14  470.12   22.79
   0  -7 -14  448.78   16.33
   7   0 -14  441.84   18.85
   0  -7 -14  439.32   17.07
  -7   0  14  429.19   17.27
   0  -7 -14  475.21   18.29
   7   0 -14  425.53   19.71
  -7   0  14  473.07   20.99
  -7   0  14  458.67   20.27
   7   0 -11  138.01   11.52
   7   0 -11  136.31    9.40
   0  -7 -11  138.24   11.30
   7  -7  11  131.18    7.36
   7   0 -11  129.09    7.70
   0   7  11  156.16   12.76
  -7   0  11  118.10    9.68
   0  -7 -11  128.25    7.76
  -7   0  11  136.72   10.75
  -7   7 -11  132.02   12.17
   0  -7 -11  131.71    9.96
   7  -7  11  136.86    7.75
   0   7  11  125.75    8.81
   0  -7 -11  142.54    7.26
  -7   0  11  125.89    9.20
   0  -7 -11  137.48    9.65
   7   0  -8 3551.75   82.28
   0  -7  -8 3443.45   83.32
   0  -7  -8 3439.59   83.75
  -7   0   8 3474.99   83.82
  -7   0   8 3412.44   84.18
   0  -7  -8 3436.64   76.64
   7   0  -8 3461.32   83.22
   0  -7  -8 3463.78   79.15
   0   7   8 3452.12   81.41
   7  -7   8 3439.96   78.74
   0   7   8 3457.18   88.45
  -7   7  -8 3571.07   88.66
   0  -7  -5 2936.23   71.23
   0   7   5 3014.79   75.66
   7   0  -5 2920.40   71.57
  -7   0   5 2965.30   72.64
   0  -7  -5 2857.74   71.85
  -7   7  -5 2809.94   74.44
   0   7   5 2824.18   68.51
  -7   0   5 2858.77   73.87
   0  -7  -5 2923.42   70.10
  -7   0   5 2990.26   71.98
  -7   7  -2   -0.71    4.70
  -7   0   2    0.86    3.32
  -7   0   2    0.92    2.63
  -7   0   2    3.22    4.04
  -7   0   2    0.66    3.81
  -7   0   2   -1.53    5.14
   0   7   2    8.37    4.61
   0  -7  -2    3.53    4.93
  -7   7  -2   -1.54    4.34
   7   0  -2    8.25    4.84
  -7   7  -2    1.43    1.82
   0  -7  -2   -1.45    3.10
  -7   7   1  928.58   28.71
  -7   0  -1  909.71   25.83
   0  -7   1  888.87   28.88
   0   7  -1  877.14   30.31
  -7   7   1  928.59   28.14
  -7   7   1  926.91   22.48
  -7   7   1  939.28   27.32
  -7   0  -1  931.89   25.86
  -7   0  -1  887.72   29.61
   0  -7   1  927.30   26.02
   7   0   1  977.12   31.00
   7   0   4  571.82   23.22
  -7   0  -4  565.40   21.83
  -7   0  -4  545.12   18.33
  -7   7   4  537.82   18.52
  -7   0  -4  571.74   19.44
   0   7  -4  552.77   21.29
   0   7  -4  546.37   14.39
  -7   7   4  566.24   18.27
  -7   7   4  574.91   15.59
   0  -7   4  578.77   18.33
  -7   7   4  537.02   19.83
   0   7  -4  538.83   22.32
  -7   0  -7  810.42   26.75
   7   0   7  796.65   29.75
  -7   0  -7  858.82   26.36
  -7   7   7  813.75   21.92
   0   7  -7  819.25   29.97
   0  -7   7  780.69   24.24
   7   0   7  834.63   30.79
  -7   7   7  752.49   25.82
  -7   7   7  840.08   24.44
   0   7  -7  792.19   27.31
  -7   0  -7  817.80   28.46
   0   7 -10 1868.17   50.35
  -7   7  10 1916.59   46.46
   0   7 -10 1876.62   42.86
  -7   7  10 1903.87   49.66
  -7   7  10 1713.53   39.58
   0   7 -10 1874.32   54.17
   7   0  10 1805.43   52.16
  -7   0 -10 1883.13   52.16
   7   0  10 1772.28   54.44
  -7   7  10 1879.85   43.65
  -7   7  13 2187.16   54.43
   0  -7  13 2230.02   59.64
   0   7 -13 2015.72   57.58
   0   7 -13 2126.33   52.08
  -7   0 -13 2122.65   60.32
   0  -7  13 2163.78   59.08
  -7   7  13 2152.21   53.53
   7   0  13 2218.79   59.43
  -7   7  13 2104.77   57.97
   7   0  16  488.20   24.22
   0  -7  16  431.95   19.92
  -7   7  16  493.71   18.58
   0   7 -16  417.96   19.92
   0   7 -16  500.44   24.62
   0  -7  16  496.60   22.25
   7   0  16  471.83   20.44
  -7   7  16  461.82   21.23
  -7   7  16  460.72   18.60
  -7   0 -16  496.05   23.62
  -7   7  19  245.74   14.54
   7   0  19  261.80   18.12
   0   7 -19  268.97   15.79
   0   7 -19  241.30   18.07
   0  -7  19  269.95   17.64
   7   0  19  274.57   14.96
  -7   0 -19  263.24   18.16
   0  -7  19  262.07   14.63
  -7   7  19  270.87   17.53
  -7   0 -22  217.66   18.03
   0   7 -22  220.28   18.24
   7   0  22  238.17   13.48
   0  -7  22  210.79   17.11
   0  -7  22  206.05   12.88
   7   0  22  233.02   17.54
  -7   7  22  210.09   15.04
   7   0  25  624.88   28.24
  -7   7  25  565.12   26.10
   0  -7  25  596.74   29.28
   0   7 -25  570.60   28.99
   1  -8  24   63.78   13.06
   7   1  24   67.23   12.92
  -1   8 -24   69.92   13.80
  -7  -1 -21  223.87   18.24
   1  -8  21  194.20   13.32
   1  -8  21  183.16   16.29
   7   1  21  213.65   17.70
   7   1  21  195.02   13.25
  -8   7  21  189.52   14.03
  -8   7  21  196.78   16.43
  -1   8 -21  184.67   17.46
   7   1  18 2384.24   63.48
   7   1  18 2327.54   68.65
  -8   7  18 2263.14   61.25
  -8   7  18 2185.39   65.21
  -1   8 -18 2246.30   65.04
  -1   8 -18 2463.56   70.31
   1  -8  18 2387.01   66.17
  -7  -1 -18 2425.64   69.13
   1  -8  18 2417.03   63.69
   8  -7 -15   23.28    7.87
  -1   8 -15   23.58    7.44
  -8   7  15   20.26    4.86
  -8   7  15   21.78    5.94
   7   1  15   17.01    7.52
   1  -8  15   28.86    7.75
  -7  -1 -15   24.43    8.20
   1  -8  15   32.63    7.96
   7   1  15   28.02    9.91
  -8   7  15   39.38    8.46
   7   1  12  160.91   12.77
   1  -8  12  147.95   12.35
   8  -7 -12  125.78   12.24
  -1   8 -12  141.60   11.77
  -1   8 -12  135.47    7.65
  -1   8 -12  148.53   13.74
   1  -8  12  149.54   11.55
  -8   7  12  145.57    8.35
  -7  -1 -12  143.90   12.45
   7   1  12  135.28   13.96
  -8   7  12  157.64    8.53
  -8   7  12  144.05   11.22
  -8   7   9  133.52    6.46
  -1   8  -9  139.41   12.49
  -1   8  -9  146.88    5.98
  -8   7   9  153.37   10.79
   7   1   9  169.92   14.18
  -8   7   9  144.17    6.46
  -8   7   9  136.56    7.92
  -1   8  -9  142.00   11.15
   8  -7  -9  155.12   12.33
   1  -8   9  164.50   13.19
  -7  -1  -9  145.29   11.79
  -8   7   6  199.66    9.39
   1  -8   6  217.77    9.73
  -1   8  -6  210.56   14.11
  -8   7   6  231.38   10.16
  -7  -1  -6  218.71   10.45
   1  -8   6  210.58   14.89
  -1   8  -6  212.41    8.77
  -7  -1  -6  219.29   13.55
  -1   8  -6  207.13   12.99
  -8   7   6  216.76    9.90
  -7  -1  -6  213.51   12.05
  -8   7   6  208.39   12.31
   7   1   6  230.42   15.51
   7   1   3  230.62   14.75
  -7  -1  -3  243.76   13.88
  -1   8  -3  240.99    8.57
  -1   8  -3  259.10   14.93
  -8   7   3  237.25   12.87
  -8   7   3  233.15   10.94
  -7  -1  -3  247.97   11.61
  -8   7   3  243.11   11.97
  -8   7   3  240.10    9.41
   1  -8   3  250.81   10.12
  -7  -1  -3  246.14   10.22
   1  -8   0 2749.49   77.15
   1  -8   0 2854.58   65.93
  -8   7   0 2789.30   64.66
  -7  -1   0 2869.43   66.73
  -8   7   0 2683.17   70.59
  -1   8   0 2866.17   72.96
   1  -8   0 2749.25   70.79
   7   1   0 2863.69   73.01
  -7  -1   0 2837.66   72.57
  -7  -1   0 2813.06   65.62
  -8   7  -3   47.21    4.39
  -7  -1   3   39.31    4.20
  -1   8   3   29.39    6.37
  -7  -1   3   36.33    6.44
  -8   7  -3   38.26    6.92
   1  -8  -3   51.32    9.05
   1  -8  -3   38.65    4.52
  -7  -1   3   52.87    6.16
   7   1  -3   42.72    6.60
  -1   8   3   50.64    7.13
   1  -8  -3   43.95    7.00
   7   1  -6   -1.33    4.70
   1  -8  -6    0.63    4.59
  -1   8   6    2.05    5.21
  -7  -1   6    3.69    4.86
  -1   8   6    6.36    3.52
  -8   7  -6    6.02    5.92
  -7  -1   6   -1.36    4.19
   1  -8  -6    4.79    6.10
   1  -8  -6    4.30    3.82
  -8   7  -6    4.73    3.37
   1  -8  -6    6.40    4.96
   7   1  -9   92.83    7.71
   1  -8  -9  115.05   11.30
   1  -8  -9  103.16    7.17
   8  -7   9  109.10    7.03
  -1   8   9  108.23    7.50
  -8   7  -9   85.28   10.46
  -7  -1   9  109.13    8.97
  -1   8   9   97.09   10.31
   7   1  -9   98.54    7.60
  -7  -1   9   98.21    9.75
   1  -8  -9   97.42    8.08
   1  -8  -9  122.36    9.31
   7   1 -12  179.46    8.83
  -1   8  12  173.97   14.02
  -1   8  12  178.10   10.25
   8  -7  12  165.31    9.46
  -7  -1  12  175.57   13.11
   1  -8 -12  200.05   10.66
   1  -8 -12  192.36    8.60
   1  -8 -12  173.43   11.02
  -7  -1  12  185.94   12.14
  -8   7 -12  159.33   13.70
   1  -8 -12  169.00   13.28
   7   1 -12  184.88   10.94
   8  -7  15  132.29    9.43
   7   1 -15  144.60   11.98
  -8   7 -15  126.93   13.34
   1  -8 -15  173.89   13.12
  -7  -1  15  148.22   12.95
   1  -8 -15  135.93   10.07
   7   1 -15  116.07   10.16
  -1   8  15  112.42   12.80
   1  -8 -15  126.23    9.42
   8  -7  15  139.58    9.55
  -7  -1  15  137.09   11.51
   1  -8 -15  142.21    8.85
  -7  -1  18 1432.38   45.94
  -8   7 -18 1471.85   49.16
   8  -7  18 1458.32   42.23
   7   1 -18 1473.90   43.72
  -1   8  18 1573.15   51.63
  -7  -1  18 1429.63   47.01
   1  -8 -18 1484.15   43.35
   7   1 -18 1429.76   43.85
   1  -8 -18 1494.66   44.49
  -1   8  21  493.01   27.58
  -7  -1  21  484.59   24.57
   8  -7  21  400.08   20.06
   7   1 -21  460.59   22.02
   1  -8 -21  414.33   20.84
  -7  -1  24   -1.54   10.29
  -8   7 -24    3.07   10.64
   7   1 -24    9.89    9.38
   1  -8 -24    7.24    9.79
   8  -7  24   14.19    9.27
   1  -8 -27   46.31   12.66
   8  -7  27   44.54   11.56
   2  -8  25    1.40   10.04
  -2   8 -25    1.55   11.03
   6   2  25    6.87    9.83
  -8   6  25    4.60    9.14
   6   2  22  303.29   20.18
  -6  -2 -22  293.80   20.98
   8  -6 -22  331.23   22.00
   2  -8  22  340.00   16.26
  -8   6  22  322.25   20.51
  -8   6  22  286.12   17.41
   2  -8  22  269.93   18.67
   6   2  22  304.22   15.45
  -2   8 -22  291.48   21.11
   2  -8  19   13.49    7.01
  -2   8 -19   14.39    9.50
   8  -6 -19    8.27    8.34
  -8   6  19    9.94    7.19
  -8   6  19    2.43    7.73
   6   2  19   12.87    7.02
  -6  -2 -19    4.13    8.33
   2  -8  19    1.16    8.19
  -8   6  16   70.21    8.40
   2  -8  16   76.62    9.46
  -8   6  16   87.37   10.27
   2  -8  16   68.44    9.70
  -6  -2 -16   67.75   10.16
   8  -6 -16   83.40   10.97
  -2   8 -13  211.85   10.68
  -2   8 -13  206.84   14.07
  -2   8 -13  228.19   15.91
   2  -8  13  225.41   13.36
  -8   6  13  233.67   11.76
   2  -8  13  236.79   14.59
   8  -6 -13  237.79   15.17
  -6  -2 -13  228.59   15.21
  -8   6  13  243.16   14.57
  -2   8 -13  228.79   10.81
  -6  -2 -10  148.04   11.58
   8  -6 -10  129.74   11.51
  -2   8 -10  163.81    7.75
   2  -8  10  146.40   12.07
  -8   6  10  153.31    6.85
  -2   8 -10  155.07   11.24
  -8   6  10  146.35    6.56
  -2   8 -10  164.42   13.25
  -8   6  10  132.23    7.75
   2  -8  10  165.05   10.75
  -8   6  10  139.33    6.39
  -8   6  10  137.07   10.63
   2  -8   7  153.68   12.55
  -6  -2  -7  162.67   11.60
  -6  -2  -7  129.08   10.05
  -8   6   7  162.55    7.16
  -8   6   7  134.49    9.97
  -2   8  -7  146.79   11.67
  -8   6   7  151.92    6.59
  -8   6   7  145.92    8.09
   2  -8   7  136.90    7.04
   8  -6  -7  167.04   12.05
  -2   8  -7  149.18    6.17
  -8   6   4 1080.48   29.28
  -6  -2  -4 1178.19   32.65
  -2   8  -4 1152.84   36.15
  -8   6   4 1151.65   34.47
  -6  -2  -4 1142.89   28.72
  -2   8  -4 1130.68   29.57
   6   2   4 1178.30   37.39
  -6  -2  -4 1079.23   34.87
   2  -8   4 1108.72   28.06
  -8   6   4 1111.16   30.56
   2  -8   1    4.73    5.06
   2  -8   1    1.00    2.11
  -2   8  -1    2.73    2.76
  -6  -2  -1    1.60    2.44
   2  -8   1   -4.43    4.81
  -2   8  -1   -3.33    4.73
   6   2   1    7.39    4.75
  -6  -2  -1    2.54    3.58
  -2   8  -1   -1.71    4.41
  -8   6   1    0.43    2.88
  -8   6  -2   55.94    5.08
   2  -8  -2   69.49    4.52
  -6  -2   2   64.44    6.10
  -6  -2   2   57.14    5.14
   6   2  -2   63.91    6.87
  -2   8   2   60.99    7.47
   2  -8  -2   62.66    8.71
  -2   8   2   50.15    6.88
   2  -8  -2   54.71    6.95
   6   2  -5    2.00    4.46
   2  -8  -5    8.00    5.89
   2  -8  -5    4.84    4.15
  -2   8   5    9.11    5.52
   6   2  -5    4.36    3.63
  -6  -2   5    7.38    4.09
  -8   6  -5    4.60    1.64
   2  -8  -5    4.45    2.97
  -8   6  -5    8.80    3.56
  -2   8   5    3.50    4.55
   2  -8  -5    5.21    4.55
   6   2  -8  482.85   16.84
   2  -8  -8  508.34   17.12
   6   2  -8  457.34   15.75
  -6  -2   8  461.82   17.52
   6   2  -8  431.74   15.22
  -2   8   8  461.38   20.84
   8  -6   8  436.59   15.81
  -2   8   8  454.49   15.08
   2  -8  -8  474.12   17.52
   2  -8  -8  462.61   17.44
  -8   6  -8  469.98   14.14
  -8   6  -8  473.01   17.07
   2  -8  -8  483.66   21.90
   6   2 -11  127.09    7.29
   8  -6  11  130.49   11.82
   6   2 -11  126.56    6.68
  -2   8  11  143.19   12.19
  -8   6 -11  118.37    9.06
   6   2 -11  112.82    8.05
   2  -8 -11  126.12    8.91
   2  -8 -11  119.56    6.91
   2  -8 -11  115.06    8.23
  -8   6 -11  111.89    7.31
  -6  -2  11  142.19    9.94
  -8   6 -11  129.41   11.88
   8  -6  11  107.94    8.23
  -2   8  11  112.50    7.64
   2  -8 -11  114.98   10.92
  -6  -2  14  557.10   22.74
  -2   8  14  632.40   20.99
   8  -6  14  583.44   25.43
  -2   8  14  570.17   25.86
   6   2 -14  568.59   16.81
   2  -8 -14  588.45   19.41
   2  -8 -14  609.10   19.40
  -6  -2  14  636.66   25.83
  -8   6 -14  594.15   20.34
   2  -8 -14  637.40   22.43
   6   2 -14  628.90   21.61
   2  -8 -14  629.41   24.73
  -8   6 -14  596.83   26.41
   8  -6  17   36.37    8.89
  -6  -2  17   31.24    8.94
  -8   6 -17   65.15   11.51
   2  -8 -17   47.56    8.29
   6   2 -17   39.30    7.20
   6   2 -17   33.27    3.85
  -2   8  17   49.04   10.80
   2  -8 -17   37.17    4.74
   2  -8 -17   47.34    8.35
  -6  -2  17   45.12    9.00
   8  -6  17   21.39    6.12
   2  -8 -20  188.69   12.88
   6   2 -20  191.57   12.84
   8  -6  20  213.21   14.07
  -2   8  20  177.49   16.78
   2  -8 -20  208.65   14.93
   6   2 -20  179.79   13.80
  -6  -2  20  180.72   15.56
  -8   6 -23   51.43   12.24
   8  -6  23   42.70    9.83
   2  -8 -23   72.02   12.13
   6   2 -23   40.63   10.01
  -6  -2  23   49.25   12.03
   8  -6  26  105.17   13.90
   2  -8 -26  120.50   14.73
   6   2 -26  125.93   14.65
   5   3  26   57.35   12.52
   3  -8  26   77.42   13.22
  -8   5  26   81.92   12.50
  -3   8 -23  121.05   14.70
  -8   5  23  145.22   13.33
   3  -8  23  107.87   13.28
   8  -5 -23  111.53   14.86
  -8   5  23  121.07   14.96
   5   3  23  141.19   10.28
   3  -8  23  123.71   10.41
  -8   5  20  232.28   17.42
   8  -5 -20  285.20   19.26
  -3   8 -20  266.23   18.85
  -8   5  20  240.47   15.60
   3  -8  20  259.53   16.78
   3  -8  20  233.82   14.10
   5   3  20  238.16   13.89
  -8   5  17   58.31    7.33
  -8   5  17   56.68    8.39
  -8   5  17   61.75    9.28
   3  -8  17   72.85    9.51
   3  -8  17   55.51    7.88
   8  -5 -17   65.33   10.50
   3  -8  17   64.91    8.82
  -8   5  14 1799.45   52.33
  -3   8 -14 1858.66   46.79
  -8   5  14 1760.68   47.91
  -3   8 -14 1760.15   55.07
   8  -5 -14 1837.94   53.83
   3  -8  14 1878.56   48.31
   3  -8  14 1830.33   50.80
  -8   5  14 1810.51   49.33
   3  -8  14 1911.69   52.86
  -8   5  11    2.69    5.13
   8  -5 -11    7.08    5.85
   3  -8  11    2.56    4.24
  -3   8 -11    4.55    4.40
  -8   5  11   -4.04    5.02
   3  -8  11   -1.42    4.70
  -8   5  11   -2.38    4.18
  -8   5  11    0.29    2.74
  -3   8 -11   -1.13    6.68
   3  -8  11    6.12    5.44
   3  -8   8  353.72   14.85
  -8   5   8  343.95   13.43
  -3   8  -8  378.26   18.61
  -8   5   8  401.30   10.00
   5   3   8  371.41   19.67
   8  -5  -8  360.36   17.70
  -8   5   8  347.75   15.79
   3  -8   8  389.41   19.19
  -8   5   8  361.50   16.78
   5   3   5  193.84   12.79
  -3   8  -5  160.83    9.06
  -5  -3  -5  182.64    7.07
  -5  -3  -5  170.52   10.42
  -3   8  -5  183.02   11.50
  -8   5   5  196.00    7.16
  -8   5   5  171.67    9.68
   3  -8   5  174.50    6.06
  -3   8  -5  187.33   12.11
  -8   5   5  190.75    7.84
  -8   5   5  197.79   11.34
   3  -8   5  196.04   12.31
  -8   5   5  182.62   11.29
   3  -8   5  217.26   14.21
  -8   5   2  542.82   20.38
   5   3   2  510.38   20.83
  -8   5   2  536.26   18.29
  -3   8  -2  555.96   21.27
  -5  -3  -2  547.29   18.73
  -3   8  -2  524.63   20.74
  -8   5   2  556.80   14.65
  -5  -3  -2  550.37   13.68
  -3   8  -2  531.85   17.34
   3  -8   2  561.47   20.77
  -3   8  -2  529.66   14.07
   3  -8  -1   11.36    5.93
  -3   8   1    5.91    3.24
  -5  -3   1    4.30    3.67
  -3   8   1    7.32    4.57
   5   3  -1    7.71    4.66
  -5  -3   1    8.60    3.21
  -3   8   1   10.15    2.07
   3  -8  -1   10.16    5.14
  -8   5  -1    7.74    3.74
  -3   8   1    7.77    4.35
  -8   5  -1    8.39    2.07
   3  -8  -4 1190.84   38.42
   8  -5   4 1084.53   35.50
  -8   5  -4 1111.98   31.34
  -3   8   4 1114.21   34.60
   5   3  -4 1137.70   32.02
  -5  -3   4 1091.64   30.07
   3  -8  -4 1126.58   32.39
  -3   8   4 1148.96   32.66
   3  -8  -4 1115.96   30.15
  -3   8   4 1072.52   27.51
  -8   5  -4 1145.42   27.67
  -5  -3   7  286.60   12.08
   3  -8  -7  264.79   16.04
   3  -8  -7  282.56   12.19
   3  -8  -7  281.46   12.78
   5   3  -7  295.98   10.33
   5   3  -7  291.30   12.12
  -3   8   7  292.76   15.09
  -3   8   7  277.29   12.33
  -8   5  -7  254.69   10.35
   3  -8  -7  281.86   12.57
  -8   5  -7  287.06   12.89
   8  -5   7  286.76   12.34
  -3   8   7  273.77    9.69
   3  -8 -10  220.77   14.25
   5   3 -10  235.97   10.19
   8  -5  10  297.56   16.49
  -5  -3  10  241.97   12.07
   8  -5  10  252.92   11.97
  -3   8  10  248.19   14.54
   5   3 -10  250.15   10.83
  -3   8  10  236.25   10.06
  -8   5 -10  246.33   12.90
   3  -8 -10  266.18   12.50
  -8   5 -10  245.55   11.08
   3  -8 -10  247.12   12.54
   5   3 -10  244.97   10.43
   3  -8 -10  229.04   10.61
   8  -5  13   21.64    7.64
   5   3 -13   22.10    3.35
   3  -8 -13   14.81    6.15
   3  -8 -13   28.40    6.56
   5   3 -13   23.40    4.97
   5   3 -13   14.60    3.93
  -3   8  13   19.39    6.87
   3  -8 -13   18.92    6.22
  -3   8  13   21.47    5.07
  -8   5 -13   22.34    6.12
  -8   5 -13   23.96    5.85
  -5  -3  13   15.84    6.41
   3  -8 -13   32.52    4.31
  -5  -3  13   26.41    6.37
   3  -8 -13   12.29    4.70
  -5  -3  16  408.23   20.72
   3  -8 -16  391.08   18.80
   8  -5  16  398.82   20.74
  -8   5 -16  419.52   21.70
   3  -8 -16  379.12   10.64
  -3   8  16  395.72   20.96
   3  -8 -16  365.00   18.07
   5   3 -16  412.80   17.23
   5   3 -16  410.11   14.60
   5   3 -19  297.27   18.64
   3  -8 -19  313.53   17.69
   5   3 -19  298.92   15.84
  -5  -3  19  323.79   19.44
   3  -8 -19  298.52   16.14
  -3   8  19  299.75   19.12
   5   3 -19  317.02   12.81
   8  -5  19  334.91   19.37
  -5  -3  22  682.11   30.15
  -8   5 -22  623.53   29.51
   8  -5  22  646.12   27.62
  -3   8  22  651.74   30.96
   8  -5  22  636.37   26.85
   5   3 -22  616.64   26.01
   3  -8 -22  664.62   28.78
   8  -5  25   90.19   13.57
  -8   5 -25  130.00   15.56
  -5  -3  25  108.19   15.23
   8  -5  25   97.62   12.69
   5   3 -25   99.03   12.51
   3  -8 -25  100.31   14.24
   4  -8  27   52.43   12.18
  -8   4  27   70.74   13.15
   4  -8  24   44.93   11.69
  -8   4  24   38.83   10.59
  -4   8 -24   37.31   11.53
   8  -4 -24   23.62   10.43
   8  -4 -21   64.33   11.75
  -4  -4 -21   57.28   11.31
  -4   8 -21   91.85   13.09
  -8   4  21   64.89   11.34
   4  -8  21   72.82   10.98
  -8   4  21   67.28   10.40
  -8   4  18  381.72   19.07
   4  -8  18  394.42   19.42
  -8   4  18  401.89   20.86
  -4  -4 -18  424.42   22.12
   8  -4 -18  390.95   21.21
   4  -8  18  394.82   18.68
  -8   4  18  387.71   15.10
  -4  -4 -15  278.15   16.80
   4  -8  15  267.07   13.23
  -4   8 -15  310.75   18.72
  -8   4  15  282.77   12.87
  -4   8 -15  290.83   13.06
  -8   4  15  280.94   16.07
   4  -8  15  298.62   16.17
   4  -8  15  284.00   15.07
  -8   4  15  276.94   14.95
   8  -4 -15  281.25   16.64
   4  -8  12  150.43   11.83
  -4  -4 -12  120.73   10.93
   4  -8  12  143.03    8.31
  -4   8 -12  148.52   12.75
  -8   4  12  141.10    7.24
  -8   4  12  145.53   11.21
   8  -4 -12  157.05   11.89
  -8   4  12  150.72    9.51
  -4   8 -12  149.62    9.54
   4  -8  12  141.58    9.83
  -8   4  12  139.98    9.71
  -8   4   9  205.93   11.53
  -4   8  -9  194.44   10.93
   8  -4  -9  207.48   13.07
   4  -8   9  237.46    8.57
  -4  -4  -9  227.40   13.32
   4   4   9  211.25   14.91
   4  -8   9  246.20   15.01
  -8   4   9  200.44    9.71
  -4   8  -9  199.33   13.96
  -8   4   9  215.86   12.72
   8  -4  -9  190.92   13.17
   4  -8   9  217.40   10.59
  -8   4   9  194.87   10.32
   8  -4  -6  349.39   17.68
   4  -8   6  350.31   18.19
  -8   4   6  329.28   14.81
  -4   8  -6  303.82   13.78
   8  -4  -6  309.67   15.65
   4   4   6  301.40   14.25
  -8   4   6  332.79   14.67
   4   4   6  308.83   16.84
  -4  -4  -6  314.00   14.59
  -4   8  -6  313.86   15.56
  -4   8  -6  340.33   16.66
   4  -8   6  335.04   12.44
  -8   4   6  330.50   12.46
  -8   4   6  342.05   15.67
  -4  -4  -6  362.24   16.20
  -8   4   3  162.20    9.35
  -8   4   3  159.35   10.20
  -4   8  -3  130.05    8.39
   4   4   3  156.12   10.95
   8  -4  -3  150.20   11.79
  -4   8  -3  152.02   10.25
  -4  -4  -3  163.12    9.57
  -8   4   3  140.12    9.52
  -4   8  -3  155.33   10.58
   4  -8   3  144.57   10.35
  -8   4   3  148.10   10.17
  -4  -4  -3  133.08    9.58
   8  -4   0  897.04   29.18
  -8   4   0  858.26   27.79
  -8   4   0  861.57   26.31
  -4  -4   0  826.24   27.46
   4  -8   0  822.93   31.27
  -8   4   0  840.60   30.69
  -4   8   0  880.31   28.27
   4   4   0  871.37   28.19
  -4  -4   0  854.35   25.62
  -4   8   0  913.99   25.55
  -8   4   0  851.76   26.94
  -4   8   0  854.99   27.18
  -4  -4   0  813.15   27.90
  -4  -4   0  867.27   22.85
  -4   8   0  877.68   22.72
   4  -8   0  809.13   26.93
   8  -4   0  829.58   30.74
  -8   4  -3  635.42   21.30
  -4  -4   3  678.62   22.94
   4  -8  -3  630.65   25.84
  -8   4  -3  685.73   26.06
   8  -4   3  637.33   24.30
  -8   4  -3  636.57   18.17
   4  -8  -3  641.07   18.31
  -8   4  -3  619.65   22.07
   4   4  -3  657.42   22.00
  -4   8   3  582.07   22.18
  -4  -4   3  606.09   19.69
  -4   8   3  632.14   20.95
  -4  -4   3  623.86   18.11
  -4   8   3  613.96   17.93
   4  -8  -3  638.90   21.26
  -4   8   3  624.20   20.13
  -4  -4   6   44.61    6.56
   8  -4   6   51.05    6.13
   8  -4   6   49.32    7.61
   8  -4   6   52.07    7.75
   4   4  -6   64.63    6.17
  -4   8   6   43.83    6.43
  -4  -4   6   52.87    5.06
  -4   8   6   58.22    5.10
  -8   4  -6   53.80    4.90
   4  -8  -6   49.33    5.08
   4  -8  -6   45.23    5.41
   4  -8  -6   43.12    7.35
  -4   8   6   53.05    5.50
  -8   4  -6   47.94    6.22
  -4   8   6   51.75    3.14
   4  -8  -6   46.05    6.04
   8  -4   9  128.42    9.02
   4  -8  -9  145.12   11.65
   4   4  -9  132.97    8.48
  -4   8   9  155.81   11.05
   4   4  -9  131.62   11.38
   4  -8  -9  145.54    8.52
  -8   4  -9  159.69    8.72
   4  -8  -9  140.99    7.45
  -4  -4   9  149.88    8.77
  -4   8   9  139.71    8.49
   4  -8  -9  154.71   10.05
   4   4  -9  128.70    6.49
  -8   4  -9  139.41    9.89
  -4   8   9  137.52    6.79
   8  -4  12  277.94   17.04
   4   4 -12  305.33   10.38
   4  -8 -12  305.26   15.16
   4   4 -12  282.44   12.65
  -4   8  12  305.57   16.03
   4   4 -12  251.06   16.38
  -8   4 -12  257.63   12.84
   4  -8 -12  304.51   13.63
   4   4 -12  275.29   11.50
   4  -8 -12  279.70   16.19
  -4   8  12  290.48   11.89
  -8   4 -12  290.40   15.15
   4  -8 -15   15.16    6.49
   4   4 -15   14.30    5.51
  -4   8  15   10.63    6.33
   4   4 -15   13.62    4.97
  -4  -4  15   12.37    6.87
   4   4 -15    1.23    7.51
   8  -4  15   14.46    7.91
   4  -8 -15   24.46    7.38
  -4   8  15   17.50    5.72
  -8   4 -15   21.09    6.83
   4   4 -18  703.36   22.55
  -4  -4  18  637.94   28.00
   4   4 -18  661.06   28.70
   8  -4  18  629.48   28.03
   4  -8 -18  645.13   25.13
   4   4 -18  659.60   24.18
   4  -8 -18  652.75   26.74
  -4   8  18  632.92   27.49
  -8   4 -18  615.28   27.23
   4   4 -21   -2.67    8.95
  -8   4 -21    5.47    9.16
   4  -8 -21    5.07    8.50
   4   4 -21    2.87    7.57
  -4  -4  21    2.77    9.48
   8  -4  21   -3.67    8.19
   4   4 -21   -0.66    5.55
  -4   8  21   -5.45    8.59
  -8   4 -24  130.51   15.09
   8  -4  24   84.67   12.24
   4  -8 -24   93.69   13.62
   4   4 -24   92.97   11.79
  -4  -4  24  103.32   14.18
   4   4 -24   93.79   13.42
   4   4 -27   -7.19    9.48
   4   4 -27    5.20   10.65
   8  -4  27   -5.70    9.11
   8  -3 -25   15.67   10.94
  -5   8 -25   19.58   11.56
  -8   3  25   15.89   10.48
   5  -8  25   26.20    9.66
  -8   3  22  112.88   12.96
   5  -8  22  128.31   12.73
  -5   8 -22  107.32   14.09
   8  -3 -19  287.72   18.20
  -3  -5 -19  349.82   20.20
   5  -8  19  282.40   16.68
  -8   3  19  335.96   18.74
   8  -3 -16   39.42    8.20
   5  -8  16   64.49    8.44
  -5   8 -16   63.33   10.49
   5  -8  16   62.99    7.32
  -3  -5 -16   63.17    9.98
   5  -8  16   44.63    7.97
  -8   3  16   53.17    8.31
   3   5  16   39.93   10.38
   8  -3 -13  172.37   12.67
   5  -8  13  159.67   10.62
  -8   3  13  171.21   11.21
   5  -8  13  156.07    8.71
  -3  -5 -13  186.09   13.17
   8  -3 -13  169.23   12.04
  -8   3  13  170.89    8.67
  -5   8 -13  166.44   13.69
  -8   3  13  176.99   10.14
  -5   8 -13  144.97    9.88
   5  -8  13  165.20   12.86
   8  -3 -10  848.88   29.27
   8  -3 -10  817.33   29.99
   5  -8  10  856.27   22.38
  -3  -5 -10  853.98   29.37
  -8   3  10  874.72   25.27
  -5   8 -10  805.07   30.65
  -5   8 -10  856.06   27.00
  -8   3  10  817.79   26.29
   5  -8  10  862.67   31.23
  -8   3  10  890.02   27.19
   5  -8  10  859.08   25.55
  -3  -5  -7    3.26    1.83
   8  -3  -7    7.53    5.07
  -8   3   7    3.85    4.68
   3   5   7    5.30    5.26
   3   5   7    1.96    4.48
  -8   3   7    8.47    4.66
   5  -8   7    3.71    3.19
  -8   3   7    1.71    3.96
  -3  -5  -7    2.37    4.26
  -8   3   7    4.03    4.17
  -5   8  -7   -0.95    5.77
  -3  -5  -7   -0.81    5.47
   5  -8   7    1.11    5.43
   8  -3  -7   -1.04    5.44
  -5   8  -7    2.68    4.49
  -8   3   7    2.03    4.78
   8  -3  -4  628.60   25.39
  -3  -5  -4  654.50   22.53
   8  -3  -4  655.48   22.75
  -5   8  -4  646.46   22.10
   3   5   4  580.35   23.47
  -5   8  -4  637.89   21.44
  -8   3   4  595.56   14.99
  -3  -5  -4  590.85   21.35
  -5   8  -4  651.38   23.14
  -5   8  -4  628.03   23.30
  -3  -5  -4  669.84   23.40
   5  -8   4  613.44   17.16
  -8   3   4  692.46   22.76
  -8   3   4  631.07   21.16
  -8   3   1   62.12    6.73
   5  -8   1   63.53    3.71
   8  -3  -1   82.56    7.98
   8  -3  -1   52.37    8.26
   5  -8   1   73.51    9.33
  -8   3   1   63.14    5.13
  -3  -5  -1   68.01    6.88
   3   5   1   75.32    7.61
  -5   8  -1   62.92    7.11
  -5   8  -1   56.03    6.87
  -3  -5  -1   55.20    7.13
  -3  -5  -1   70.09    3.70
  -3  -5  -1   68.87    6.99
  -8   3   1   77.38    7.10
  -5   8  -1   65.45    6.39
   5  -8   1   69.28    3.80
  -8   3  -2  379.09   16.01
  -3  -5   2  374.53   15.85
   5  -8  -2  395.56   19.68
   8  -3   2  398.73   19.62
   5  -8  -2  379.42   11.10
  -8   3  -2  380.30   13.44
   8  -3   2  378.73   17.60
  -8   3  -2  357.96   14.96
  -8   3  -2  368.73   15.43
   3   5  -2  354.56   16.07
  -5   8   2  390.67   16.44
  -3  -5   2  391.33   14.86
  -5   8   2  351.76   14.60
  -5   8   2  370.43   14.85
  -5   8   2  374.28   13.27
  -3  -5   2  390.52   11.10
  -3  -5   5   26.61    5.26
   8  -3   5   27.29    4.91
   5  -8  -5   24.86    6.92
   8  -3   5   27.74    6.84
  -5   8   5   19.72    4.86
  -8   3  -5   19.94    5.29
  -8   3  -5   12.42    5.37
  -5   8   5   24.86    5.29
   3   5  -5   20.47    4.97
  -5   8   5   27.62    4.31
   3   5  -5   25.50    6.56
   5  -8  -5   26.54    3.57
  -8   3  -5   26.52    4.74
  -8   3  -5   24.85    5.32
  -3  -5   5   25.16    3.33
  -5   8   5   21.89    4.07
   8  -3   8  616.16   21.67
  -3  -5   8  623.82   22.70
   5  -8  -8  655.57   25.95
   8  -3   8  670.84   25.66
   8  -3   8  619.54   25.87
   5  -8  -8  591.00   22.63
  -5   8   8  628.02   16.88
  -8   3  -8  633.19   23.00
  -8   3  -8  612.39   24.29
   3   5  -8  555.34   21.05
  -5   8   8  657.87   22.97
  -5   8   8  620.14   20.41
  -5   8   8  630.25   18.11
  -8   3  -8  621.06   20.17
   3   5  -8  620.27   16.10
   5  -8  -8  595.26   18.83
   8  -3  11   29.60    7.27
   5  -8 -11   31.91    5.55
   5  -8 -11   38.10    7.88
   3   5 -11   30.84    4.12
   5  -8 -11   28.90    6.53
  -5   8  11   38.62    6.88
   3   5 -11   28.85    5.86
   5  -8 -11   27.14    5.90
  -5   8  11   41.43    4.89
  -8   3 -11   33.66    6.64
   3   5 -11   46.47    8.69
  -5   8  11   36.79    5.99
  -8   3 -11   34.00    6.02
   5  -8 -14  578.79   24.02
   8  -3  14  612.73   24.12
   3   5 -14  570.29   15.24
   8  -3  14  629.22   26.74
  -5   8  14  606.42   23.85
  -5   8  14  581.80   20.04
  -8   3 -14  604.24   24.41
   5  -8 -14  604.09   24.15
   3   5 -14  619.12   26.64
  -5   8  14  620.03   22.92
   3   5 -14  569.34   20.94
   5  -8 -14  571.09   20.84
   3   5 -14  587.76   19.81
   3   5 -17    2.21    5.46
  -5   8  17    1.05    6.60
   5  -8 -17    0.99    6.61
  -8   3 -17   12.70    8.16
   5  -8 -17    4.44    6.84
   3   5 -17    2.65    7.94
   8  -3  17   -1.28    7.83
   3   5 -20  389.42   17.25
  -5   8  20  380.62   20.62
  -5   8  20  389.88   19.14
   8  -3  20  348.27   20.87
   5  -8 -20  349.34   20.55
  -8   3 -20  332.34   20.31
   3   5 -20  355.62   21.31
   5  -8 -23    7.28    9.04
   3   5 -23   10.64    7.22
  -8   3 -23   -1.40    9.88
   3   5 -23    5.66   10.12
   8  -3  23   21.46    9.73
  -5   8  23    3.39    8.32
  -3  -5  23    9.45    6.37
  -5   8  26  368.44   22.28
  -8   3 -26  451.46   24.91
   3   5 -26  450.64   24.48
   8  -3  26  424.55   23.01
  -8   2  26    8.63   10.54
   6  -8  26    3.54    9.80
  -8   2  23    9.32    9.82
  -6   8 -23   14.83   10.28
   6  -8  23    1.07    8.66
   8  -2 -23   -8.42   10.10
   8  -2 -20   14.88    8.71
  -8   2  20   -1.21    7.98
  -2  -6 -20   10.05    6.95
   6  -8  20    0.95    6.92
  -8   2  20    2.53    8.16
  -8   2  17  413.38   20.98
  -6   8 -17  472.44   24.04
  -8   2  17  430.86   20.88
   6  -8  17  384.02   18.00
   8  -2 -17  423.20   19.00
   2   6  17  400.73   24.41
   6  -8  17  418.62   17.12
  -2  -6 -17  454.08   22.12
   8  -2 -17  443.37   21.11
  -8   2  14  952.24   33.37
  -2  -6 -14 1007.74   29.49
  -6   8 -14  952.66   36.00
  -8   2  14 1041.09   28.84
  -8   2  14  997.32   33.08
   6  -8  14  979.29   30.30
   8  -2 -14  994.06   33.51
   8  -2 -14  971.76   33.27
   2   6  14 1014.83   38.39
   6  -8  14  999.16   28.20
  -2  -6 -14 1046.76   34.79
  -2  -6 -14 1007.92   29.18
   6  -8  11  537.25   24.17
   8  -2 -11  580.92   23.95
   8  -2 -11  528.42   21.91
   2   6  11  586.81   25.98
  -2  -6 -11  556.72   17.29
  -8   2  11  573.01   22.74
  -6   8 -11  558.60   24.79
  -8   2  11  577.51   19.61
  -2  -6 -11  584.39   18.54
  -2  -6 -11  576.67   22.77
   6  -8  11  579.85   16.87
   6  -8  11  571.15   18.84
  -8   2  11  585.44   21.80
   8  -2  -8   46.03    8.31
   6  -8   8   48.59    8.49
  -8   2   8   44.05    6.56
   8  -2  -8   33.98    5.94
   8  -2  -8   44.41    6.80
  -2  -6  -8   44.47    3.47
   2   6   8   38.82    5.94
  -6   8  -8   53.34    8.41
  -8   2   8   43.80    6.93
  -2  -6  -8   45.32    4.57
   6  -8   8   54.88    4.61
   6  -8   8   49.22    3.14
  -2  -6  -8   46.98    6.83
  -8   2   8   42.75    6.38
  -2  -6  -8   43.77    7.44
   8  -2  -5   30.14    7.29
   6  -8   5   34.34    7.50
  -8   2   5   36.88    6.11
  -2  -6  -5   43.63    7.04
  -6   8  -5   33.13    6.48
  -2  -6  -5   29.37    2.48
  -8   2   5   42.72    6.57
  -8   2   5   40.28    6.34
   2   6   5   36.26    5.70
   2   6   5   37.64    7.12
  -8   2   5   24.97    4.98
  -6   8  -5   33.80    6.17
   6  -8   5   31.62    2.51
   8  -2  -5   25.48    5.62
  -2  -6  -5   32.23    5.80
   2   6   2   20.56    5.66
  -8   2   2   18.94    3.01
  -2  -6  -2   24.43    5.49
  -6   8  -2   13.26    4.81
   8  -2  -2   17.12    6.68
  -2  -6  -2   15.04    4.58
  -8   2   2   23.29    5.43
  -2  -6  -2   29.36    6.31
  -6   8  -2   17.45    4.95
   8  -2  -2   19.99    5.41
  -8   2   2   25.62    5.14
  -6   8  -2   16.57    4.88
   8  -2   1  653.97   26.91
   8  -2   1  661.77   24.86
  -8   2  -1  662.66   21.86
   6  -8  -1  634.97   27.25
  -8   2  -1  648.16   20.25
   2   6  -1  668.38   24.09
  -6   8   1  677.85   23.10
  -2  -6   1  680.87   22.31
  -6   8   1  679.02   22.33
  -6   8   1  656.04   21.06
  -2  -6   1  676.91   22.47
  -8   2  -1  648.41   23.56
  -6   8   1  701.20   22.69
  -2  -6   4 1763.04   45.52
  -8   2  -4 1715.19   43.73
   6  -8  -4 1651.18   51.25
   8  -2   4 1614.21   48.88
  -8   2  -4 1757.71   45.43
  -8   2  -4 1698.87   45.07
   2   6  -4 1687.40   46.55
  -6   8   4 1682.35   45.51
   2   6  -4 1690.14   49.62
  -6   8   4 1691.31   43.15
  -6   8   4 1688.02   43.79
  -8   2  -4 1582.67   46.47
  -6   8   4 1652.49   44.87
  -2  -6   7  432.08   17.34
   6  -8  -7  385.82   20.27
  -8   2  -7  427.19   16.20
   8  -2   7  399.72   19.98
   8  -2   7  398.06   20.11
  -8   2  -7  397.71   18.05
   6  -8  -7  374.59   17.89
  -6   8   7  413.73   16.86
   2   6  -7  394.42   17.18
  -6   8   7  398.90   15.95
   2   6  -7  419.00   20.25
  -6   8   7  436.80   13.75
  -8   2  -7  449.69   18.79
  -6   8   7  423.07   11.95
   2   6  -7  408.63   10.40
   6  -8  -7  418.91   12.58
   6  -8 -10   -6.61    6.00
  -6   8  10   -2.98    4.92
   2   6 -10    4.58    4.82
  -6   8  10   -2.79    4.33
   6  -8 -10    0.85    3.67
  -8   2 -10    3.20    4.83
  -6   8  10    6.10    3.66
  -8   2 -10    8.37    5.58
   6  -8 -10   -1.13    6.44
   8  -2  10    6.19    6.41
   2   6 -13   -3.16    5.10
  -6   8  13    4.90    5.20
   2   6 -13    0.91    3.91
  -6   8  13    3.26    5.15
   6  -8 -13    9.48    5.22
  -2  -6  13   -2.10    6.25
   2   6 -13   -5.07    7.67
   6  -8 -13    3.07    6.09
  -6   8  13    5.06    4.64
  -8   2 -13    5.16    5.74
   8  -2  13   -1.28    7.53
   8  -2  13    0.99    6.47
   8  -2  16   10.60    8.36
  -8   2 -16    8.13    7.04
   2   6 -16    6.77    7.61
   6  -8 -16   10.28    7.71
   2   6 -16    8.33    6.39
  -6   8  16    9.14    6.38
  -6   8  16   14.50    6.87
   8  -2  16   16.21    6.57
  -2  -6  16   11.56    7.24
   6  -8 -16   11.49    5.94
  -6   8  16    8.47    5.73
   6  -8 -19   21.97    8.62
  -6   8  19   36.33    8.03
   2   6 -19   31.81    7.50
  -2  -6  19   28.25    9.60
   2   6 -19   30.02   10.13
  -8   2 -19   35.37    9.85
  -6   8  19   32.42    7.44
   8  -2  19   34.77   10.11
  -2  -6  19   41.00    8.06
   2   6 -22 1161.42   36.82
  -2  -6  22 1109.18   34.03
  -2  -6  22 1162.10   41.98
  -6   8  22 1045.27   36.82
   8  -2  22 1147.79   40.73
   6  -8 -22 1070.56   41.35
   2   6 -22 1130.39   42.07
   2   6 -25   19.45   11.36
  -8   2 -25   28.30   11.32
   2   6 -25   20.34    8.41
   6  -8 -25   24.69   11.79
   8  -2  25   28.72   11.14
  -6   8  25   29.48   10.57
   7  -8  27  158.30   15.32
  -1  -7 -27  185.50   16.18
  -8   1  24   34.90   11.52
   8  -1 -24   19.40   10.35
  -1  -7 -24   35.48   10.41
   7  -8  24   22.73   10.20
  -7   8 -24   32.24   11.97
   8  -1 -21   63.02   10.71
  -1  -7 -21   63.75    9.59
  -8   1  21   63.42   11.63
  -8   1  21   67.33   11.81
   7  -8  21   62.95    9.66
  -8   1  18  225.00   16.06
  -7   8 -18  237.80   18.12
   1   7  18  227.64   19.25
   7  -8  18  239.73   13.99
   8  -1 -18  246.19   14.78
  -1  -7 -18  237.73   13.80
   8  -1 -18  264.28   16.62
  -1  -7 -18  257.03   15.32
  -8   1  18  252.91   16.91
   1   7  15  423.00   23.97
  -1  -7 -15  452.06   17.16
   7  -8  15  446.52   16.56
  -1  -7 -15  455.66   21.34
  -1  -7 -15  443.66   16.72
  -8   1  15  407.95   20.49
  -8   1  15  454.17   21.06
  -7   8 -15  457.60   23.71
  -1  -7 -15  436.71   20.67
   8  -1 -15  430.49   19.85
   8  -1 -15  468.17   20.87
   7  -8  15  444.80   17.72
  -8   1  12  101.05    9.92
   7  -8  12   83.34    6.86
  -1  -7 -12   84.76    6.49
   8  -1 -12   95.12    9.10
   1   7  12  115.94   12.20
   8  -1 -12   81.58   10.21
  -7   8 -12  115.04   12.16
   7  -8  12   96.24    6.60
  -1  -7 -12  104.87    9.72
  -1  -7 -12   99.78    6.69
  -8   1  12  105.47    9.85
  -8   1  12   86.98    8.32
   8  -1  -9  244.01   15.40
   7  -8   9  212.46    8.16
   8  -1  -9  221.30   11.57
   8  -1  -9  216.73   12.49
  -1  -7  -9  227.39    8.74
   1   7   9  239.63   15.74
  -8   1   9  212.44   11.96
  -1  -7  -9  205.68   12.57
  -7   8  -9  194.28   14.15
  -1  -7  -9  237.95   13.09
  -8   1   9  233.41   13.25
  -8   1   9  215.04   12.81
  -1  -7  -9  223.53    7.94
   1   7   9  227.25   11.71
   7  -8   9  209.04    8.11
   8  -1  -6  624.64   22.09
  -1  -7  -6  624.57   21.73
  -1  -7  -6  607.94   22.61
  -8   1   6  609.44   22.26
  -8   1   6  567.94   22.11
   8  -1  -6  598.14   26.04
  -8   1   6  611.33   23.60
   1   7   6  615.77   20.40
  -7   8  -6  651.05   25.16
  -8   1   3   81.21    4.38
  -8   1   3   76.33    6.64
  -8   1   3   87.90    8.69
  -8   1   3   82.41    8.11
  -7   8  -3   69.28    8.24
   8  -1  -3   81.77    8.23
  -1  -7  -3   67.91    6.67
   8  -1  -3   79.22    9.87
  -8   1   3   75.53    8.21
   8  -1   0  770.74   30.26
  -7   8   0  722.88   24.35
  -8   1   0  747.12   21.28
   1   7   0  763.32   27.02
   1   7   0  734.15   27.45
  -7   8   0  697.68   24.57
  -1  -7   0  802.28   23.97
   8  -1   0  700.88   26.09
   7  -8   0  705.17   29.71
  -8   1   0  724.77   26.11
  -8   1   0  757.88   23.05
   7  -8  -3  795.49   31.83
  -8   1  -3  819.55   24.83
   8  -1   3  773.21   28.75
  -7   8   3  752.51   25.13
   1   7  -3  808.21   27.80
  -8   1  -3  815.41   24.48
   1   7  -3  778.94   29.12
  -7   8   3  800.19   24.42
  -7   8   3  775.65   25.07
  -8   1  -3  775.36   27.42
  -1  -7   3  807.46   24.83
   8  -1   6  155.38   12.73
   1   7  -6  140.66    4.56
  -8   1  -6  152.13    9.60
  -7   8   6  176.33   10.08
   1   7  -6  193.13   11.87
  -1  -7   6  150.40    9.53
  -7   8   6  170.30    6.38
  -8   1  -6  162.77   10.17
  -7   8   6  156.63    7.90
   1   7  -6  193.65   13.62
  -7   8   6  164.37    6.60
  -8   1  -6  152.67   11.46
  -7   8   6  184.59   10.50
  -8   1  -6  165.85   10.84
   8  -1   6  156.20   13.11
   7  -8  -9  257.63   15.23
   8  -1   9  273.81   17.11
   1   7  -9  261.87   14.39
  -7   8   9  247.74   12.69
  -1  -7   9  257.02   12.97
   1   7  -9  253.56   16.63
  -7   8   9  259.98    8.61
  -7   8   9  265.82   10.83
  -8   1  -9  259.04   15.07
   8  -1   9  252.58   15.78
  -7   8   9  255.53   13.33
  -7   8  12  382.39   16.53
   7  -8 -12  414.28   20.20
   1   7 -12  409.53   18.58
  -7   8  12  392.73   17.88
   1   7 -12  405.38   13.48
  -8   1 -12  394.06   19.62
  -7   8  12  409.75   15.66
   7  -8 -12  408.97   14.41
  -1  -7  12  411.61   19.62
   8  -1  12  374.58   19.38
   8  -1  15   -1.01    6.38
  -1  -7  15    5.98    6.68
  -7   8  15    4.83    6.33
   8  -1  15    1.38    8.22
   7  -8 -15    3.54    7.68
   1   7 -15    4.63    6.46
  -7   8  15    0.78    5.56
  -1  -7  15    1.12    7.32
   7  -8 -15   -3.54    5.03
  -8   1 -15    3.56    7.00
   1   7 -15   -1.39    8.33
  -7   8  15    3.64    5.21
   8  -1  18  539.40   26.56
  -1  -7  18  587.62   23.38
   7  -8 -18  546.81   25.88
  -7   8  18  493.12   23.68
  -7   8  18  550.99   22.32
   1   7 -18  544.45   23.44
   8  -1  18  571.64   23.53
   1   7 -18  613.33   28.71
  -7   8  18  562.08   21.63
  -8   1 -18  559.62   26.38
  -1  -7  18  559.43   25.63
   7  -8 -21    2.97    9.09
   1   7 -21    7.25    7.95
   1   7 -21   35.43   11.94
  -8   1 -21    8.80    9.19
  -1  -7  21   16.57   10.06
   8  -1  21   14.91    7.01
  -1  -7  21   24.74    7.68
  -7   8  21   19.87    8.14
   8  -1  21   16.71   10.45
  -1  -7  24  160.34   16.81
   7  -8 -24  226.48   19.77
   8  -1  24  171.60   16.16
   1   7 -24  200.92   15.05
   1   7 -24  179.56   18.66
   1   7 -27   14.34    9.77
   8  -8  25   61.60   11.66
   8   0 -25   54.22   11.78
   0  -8 -25   67.53   12.03
  -8   0  22   60.08   12.73
   8   0 -22   69.73   11.58
   0  -8 -22   68.71   10.55
   8  -8  22   57.22    9.77
   0   8  22   50.93   13.14
   0   8  19   63.44   12.98
  -8   8 -19   55.91   11.86
  -8   0  19   54.74   10.78
   0  -8 -19   49.89    9.15
  -8   0  19   50.22   10.94
   8   0 -19   55.04   10.07
   0  -8 -19   41.01    8.45
   8   0 -19   59.62    9.23
   8  -8  19   52.86    8.59
  -8   0  16   35.79    9.12
  -8   0  16   25.71    8.20
   0  -8 -16   39.10    6.76
   8   0 -16   26.33    7.73
   0   8  16   38.40   11.15
   0  -8 -16   42.89    8.93
   8   0 -16   27.57    8.43
  -8   8 -16   48.73   10.98
   8  -8  16   38.68    6.57
   8  -8  13  547.94   18.24
   8  -8  13  562.31   17.65
   8   0 -13  555.45   24.42
  -8   0  13  578.56   23.30
   8   0 -13  568.12   21.96
   0  -8 -13  533.61   24.26
   0   8  13  535.41   26.31
   0  -8 -13  529.07   16.79
   0  -8 -13  512.20   18.39
   0  -8 -13  546.07   21.45
  -8   8 -13  598.93   26.77
  -8   0  13  588.38   24.14
   0  -8 -13  553.35   22.64
   8   0 -10  673.25   27.48
   0  -8 -10  654.19   23.48
   0   8  10  658.79   21.70
   8  -8  10  634.80   18.82
  -8   0  10  620.03   25.62
   0  -8 -10  639.94   23.57
   0   8  10  682.39   28.52
   8   0 -10  619.78   21.29
  -8   8 -10  595.60   26.77
   0  -8 -10  688.51   27.94
   0  -8 -10  651.83   19.40
   8   0 -10  650.40   23.15
  -8   0  10  609.13   23.63
   0  -8 -10  630.94   16.69
   0   8   7  300.79   17.19
  -8   8  -7  270.85   16.22
   8   0  -7  297.32   13.98
  -8   0   7  270.51   15.56
   0   8   7  313.05   12.73
  -8   0   7  266.09   14.05
   0  -8  -7  286.77   13.56
   8   0  -7  255.85   17.27
   0  -8  -4  272.97   12.30
   8   0  -4  244.97   13.50
  -8   0   4  249.67   13.29
  -8   0   4  266.15    8.72
  -8   0   4  262.69   14.86
  -8   8  -4  243.41   14.55
  -8   0   1   28.49    5.06
  -8   8  -1   37.26    5.76
  -8   0   1   32.58    4.27
   0  -8  -1   31.48    5.11
  -8   8  -1   29.25    2.53
  -8   8  -1   21.36    6.05
  -8   0   1   34.38    6.20
   8   0  -1   28.07    7.04
  -8   0   1   21.36    5.85
   0   8   1   35.68    7.12
  -8   0  -2  134.29   10.94
   0   8  -2  143.23   11.14
  -8   8   2  181.12   10.23
  -8   0  -2  140.21    8.59
  -8   0  -2  148.96    8.64
   0   8  -2  139.84   11.77
  -8   8   2  141.72    9.64
   8   0   2  152.25   11.99
  -8   8   2  136.14    9.95
  -8   8   2  154.91    5.61
   0  -8   2  140.13    8.42
   8   0   5  271.08   17.41
   0   8  -5  282.75    8.23
   0   8  -5  268.90   16.40
  -8   8   5  303.84   12.38
  -8   0  -5  313.94   16.30
  -8   0  -5  290.59   13.68
  -8   8   5  298.89   13.07
   0   8  -5  285.06   15.49
  -8   8   5  268.42   13.93
  -8   0  -5  280.82   12.64
  -8   8   5  281.28    9.69
   0  -8   5  283.78   12.34
   8   0   5  285.24   17.22
   8   0   8  680.70   30.05
   0  -8   8  741.75   24.08
  -8   8   8  743.86   21.76
  -8   8   8  757.25   23.88
   0   8  -8  775.15   27.96
   8   0   8  795.82   30.64
  -8   8   8  788.87   20.96
   0   8  -8  775.82   30.34
  -8   0  -8  774.94   28.74
   0   8  -8  735.48   20.30
  -8   0  -8  735.48   24.33
  -8   8   8  798.16   26.71
   0   8 -11   71.08    8.98
  -8   8  11   61.48    6.65
   0  -8  11   79.48   10.35
   0   8 -11   78.88   11.50
  -8   0 -11   94.63   10.63
  -8   8  11   65.37    8.14
   8   0  11   67.19    9.74
   0  -8  11   72.46    8.86
   8   0  11   57.96   10.71
  -8   8  14  390.33   15.69
   0  -8  14  351.92   18.95
   0   8 -14  348.92   18.36
  -8   8  14  372.42   18.71
   0  -8  14  397.68   19.72
  -8   8  14  353.57   14.11
   8   0  14  373.23   19.71
  -8   0 -14  332.54   19.70
   0  -8  17   50.00    9.93
   8   0  17   56.86    9.21
   8   0  17   49.77   11.33
   8  -8 -17   41.74   10.20
  -8   8  17   47.00    9.30
   0   8 -17   41.86    9.20
  -8   0 -17   44.39    9.97
   0  -8  17   39.36    8.89
  -8   8  17   45.75    7.40
   0   8 -17   57.53   11.46
   8   0  20  223.10   14.95
   8   0  20  285.47   19.43
   0  -8  20  222.33   14.90
  -8   8  20  197.56   16.55
   0  -8  20  241.28   17.45
   8  -8 -20  249.08   18.84
   0   8 -20  261.93   17.12
   0   8 -20  179.53   17.44
  -8   0 -20  209.33   18.01
   0   8 -23   91.87   14.69
   0  -8  23   74.98   13.85
   8   0  23   82.51   14.02
  -8   0 -23   81.20   14.32
   8  -8 -23   85.74   14.57
   0   8 -23   94.91   12.75
   0   8 -26  298.60   19.74
  -1   9 -22  476.23   24.62
   8   1  22  460.48   21.05
  -1   9 -22  483.64   27.85
  -9   8  22  484.12   25.84
   1  -9  22  424.66   24.19
  -9   8  19   78.99   12.17
  -1   9 -19   78.70   12.04
   1  -9  19   81.28   12.26
  -1   9 -19   71.88   14.05
   8   1  19   79.90   13.40
   1  -9  19  109.21   12.41
  -8  -1 -19   81.00   12.98
   8   1  19  113.58   12.28
  -9   8  16   70.03   10.50
   8   1  16   64.10   10.67
   1  -9  16   77.52   11.12
  -8  -1 -16   64.83   11.69
  -1   9 -16   55.84   10.15
   8   1  16   75.77   13.26
   1  -9  16   68.98   11.10
  -9   8  13   42.27    8.48
   8   1  13   60.36   10.02
   1  -9  13   57.74    9.49
  -8  -1 -13   69.74   10.92
  -1   9 -13   49.97    9.33
  -1   9 -13   62.41   11.82
   8   1  13   46.11   11.12
   1  -9  13   53.35   10.31
  -9   8  10   26.62    7.30
  -1   9 -10   22.38    7.35
  -9   8  10   23.74    4.92
   8   1  10   16.48    9.39
   1  -9  10   17.89    8.45
   1  -9  10   22.60    7.20
   8   1  10   21.20    8.31
   1  -9  10   22.85    5.26
  -1   9 -10   18.79    9.13
  -8  -1 -10   25.95    7.75
  -9   8   7  507.96   16.85
   1  -9   7  529.78   17.63
  -1   9  -7  578.86   25.32
  -9   8   7  497.90   16.89
   8   1   7  494.67   24.84
  -8  -1  -7  552.94   23.85
   1  -9   7  512.23   25.34
  -8  -1  -7  483.43   17.81
  -9   8   7  512.27   21.19
  -9   8   7  537.15   17.87
  -1   9  -7  507.67   22.59
  -1   9  -4  242.89   15.02
  -9   8   4  214.41   10.98
  -8  -1  -4  239.16   12.21
  -8  -1  -4  239.27   10.66
  -1   9  -4  230.69    8.16
  -1   9  -4  243.04   15.59
  -9   8   4  228.61   12.00
   8   1   4  206.99   15.44
  -8  -1  -4  221.90   14.53
   1  -9   4  222.49   10.08
  -9   8   4  214.50   13.07
  -9   8   4  242.59    9.58
  -8  -1  -1  433.36   15.56
  -9   8   1  421.88   16.54
  -8  -1  -1  413.02   14.35
  -1   9  -1  355.79   19.22
  -9   8   1  435.73   18.32
  -8  -1  -1  438.10   20.16
  -9   8   1  425.51   13.14
   1  -9   1  402.10   14.41
   1  -9   1  438.34   23.73
   8   1   1  405.38   19.96
  -9   8   1  420.49   18.57
   8   1  -2  234.18   14.34
  -1   9   2  221.43   14.28
  -8  -1   2  244.50   13.00
  -9   8  -2  256.60   15.10
  -8  -1   2  236.25   14.52
   1  -9  -2  236.49   10.66
  -9   8  -2  245.25    9.21
  -8  -1   2  234.63   10.00
  -1   9   2  237.89   15.27
   1  -9  -2  248.30   18.17
  -9   8  -5  120.69    6.86
   1  -9  -5  126.68    8.16
  -8  -1   5  122.59    9.44
  -8  -1   5  120.97   10.97
  -9   8  -5  109.35   11.19
   8   1  -5   91.23    8.99
   1  -9  -5  125.47   13.81
  -1   9   5  118.19   11.41
  -1   9   8   19.68    7.97
  -8  -1   8   35.42    6.81
  -8  -1   8   20.53    7.12
  -1   9   8   34.36    5.36
   1  -9  -8   41.57    6.40
   1  -9  -8   30.90    8.90
   8   1  -8   43.26    6.76
  -9   8  -8   29.66    8.98
   9  -8  11 1176.37   31.40
  -8  -1  11 1093.09   38.55
  -9   8 -11 1152.14   40.63
  -1   9  11 1147.59   40.86
  -8  -1  11 1150.99   36.28
   8   1 -11 1181.54   34.26
   1  -9 -11 1097.20   31.73
   1  -9 -11 1161.59   40.42
   8   1 -11 1150.64   32.49
  -1   9  14  110.83   13.82
   8   1 -14   98.23    9.58
  -9   8 -14  116.28   14.07
  -8  -1  14  122.31   12.45
   8   1 -14  108.72   12.27
  -8  -1  14  123.82   11.54
   1  -9 -14  114.04    8.96
   1  -9 -14   92.95   11.75
   1  -9 -17  299.40   15.17
   8   1 -17  345.91   18.76
  -8  -1  17  271.94   18.69
   8   1 -17  306.67   16.49
  -1   9  17  240.31   19.82
  -9   8 -17  323.73   21.03
  -8  -1  17  272.60   17.38
   1  -9 -17  294.45   17.90
  -9   8 -20   86.37   13.72
  -1   9  20   75.62   13.81
   1  -9 -20   84.93   10.54
   8   1 -20   85.48   11.02
  -8  -1  20   79.91   13.40
  -8  -1  20   86.13   12.50
   9  -8  20   88.02   10.03
   8   1 -23   99.92   12.93
   1  -9 -23   99.40   12.00
   2  -9  23  231.76   18.21
   7   2  23  196.46   18.24
  -9   7  23  208.91   18.50
  -2   9 -23  212.14   17.76
   9  -7 -20  254.90   19.64
   2  -9  20  278.21   16.82
   7   2  20  269.45   19.78
  -9   7  20  278.63   18.89
  -2   9 -20  292.56   19.04
   2  -9  20  296.63   18.97
   7   2  20  255.43   16.15
  -7  -2 -20  274.26   20.25
  -2   9 -20  281.89   20.89
  -2   9 -17  422.24   21.63
  -9   7  17  338.79   20.42
   2  -9  17  376.57   19.81
  -9   7  17  360.88   16.74
   2  -9  17  427.42   21.26
   9  -7 -17  367.55   21.80
   7   2  17  415.49   20.40
   7   2  17  400.55   23.35
  -7  -2 -17  407.19   22.71
  -2   9 -14  193.27   14.31
  -7  -2 -14  237.64   16.67
  -2   9 -14  215.16   17.50
   2  -9  14  213.97   15.40
   9  -7 -14  226.27   16.24
  -9   7  14  202.22   11.03
  -9   7  14  228.77   15.08
   2  -9  14  197.75   13.98
   9  -7 -11 1565.59   49.72
  -9   7  11 1594.47   39.97
  -9   7  11 1641.03   39.01
  -2   9 -11 1572.86   48.32
  -9   7  11 1643.90   47.77
  -9   7  11 1580.61   37.19
  -2   9 -11 1603.11   51.31
   2  -9  11 1612.59   50.09
  -7  -2 -11 1669.70   50.09
   2  -9  11 1565.50   45.88
   2  -9   8    5.03    7.36
  -7  -2  -8    8.63    6.24
  -9   7   8    8.36    4.07
  -7  -2  -8   12.87    4.50
  -2   9  -8    6.24    4.08
  -2   9  -8   11.25    6.25
  -9   7   8    7.51    3.40
  -9   7   8    9.41    2.52
  -9   7   8   12.89    6.08
  -2   9  -8   10.28    2.15
  -2   9  -8    8.34    7.09
   2  -9   8   11.04    5.61
   2  -9   8   12.44    3.70
  -9   7   8    8.29    4.44
  -9   7   5   89.11    6.36
  -7  -2  -5   75.96    8.02
  -2   9  -5   75.88    9.71
  -9   7   5   88.29    7.67
  -7  -2  -5   94.75    9.77
  -2   9  -5   82.67    6.23
  -7  -2  -5   95.96    6.22
   2  -9   5   92.28   11.21
  -9   7   5   98.20    9.39
   2  -9   5   95.84    5.64
  -9   7   5   94.72    6.95
   7   2   2  209.40   14.37
  -7  -2  -2  193.06   10.38
  -2   9  -2  161.08   12.22
  -9   7   2  189.23    9.52
  -2   9  -2  196.34    8.36
  -7  -2  -2  180.45    7.79
   2  -9   2  176.49    7.41
  -2   9  -2  188.43   12.91
  -9   7   2  166.24   11.74
  -7  -2  -2  159.36   12.28
  -9   7   2  172.69    8.81
   7   2   2  169.55   12.93
  -9   7   2  202.99   11.76
   7   2  -1 1108.35   34.44
   2  -9  -1 1068.94   39.54
   7   2  -1 1078.30   35.17
  -2   9   1 1071.22   35.62
  -7  -2   1 1101.19   29.76
  -9   7  -1 1108.75   29.37
   2  -9  -1 1075.93   27.51
  -2   9   1 1019.57   34.24
  -7  -2   1 1116.84   31.75
  -7  -2   1  992.43   34.57
  -9   7  -1 1074.45   34.67
   2  -9  -4 1065.64   30.48
  -7  -2   4  985.47   33.87
   7   2  -4 1010.59   32.29
   2  -9  -4 1084.72   38.76
   7   2  -4 1030.43   31.29
  -2   9   4 1067.72   35.27
  -2   9   4  997.58   32.66
  -7  -2   4 1026.25   27.38
   2  -9  -4 1032.19   32.43
  -9   7  -4 1032.70   34.86
  -7  -2   4 1031.32   30.60
  -9   7  -4 1040.20   28.81
   2  -9  -4 1016.93   27.55
   7   2  -7 1070.37   32.00
   2  -9  -7 1039.34   38.24
   2  -9  -7 1077.74   31.68
   7   2  -7 1100.77   30.60
  -2   9   7 1059.66   36.59
  -9   7  -7 1097.92   30.66
   2  -9  -7 1020.93   32.42
  -7  -2   7 1040.19   31.81
  -2   9   7 1079.78   28.32
  -9   7  -7 1040.55   36.67
   2  -9 -10  362.85   19.88
   7   2 -10  380.29   14.58
   7   2 -10  340.89   12.58
  -7  -2  10  370.44   16.39
  -2   9  10  349.01   19.43
   7   2 -10  321.31   13.90
   2  -9 -10  334.86   14.65
   2  -9 -10  306.59   15.02
  -9   7 -10  344.31   19.81
  -9   7 -10  347.78   15.33
   9  -7  10  395.91   14.70
  -2   9  10  362.88   13.61
   7   2 -13    9.19    5.37
   2  -9 -13   -0.70    5.22
   7   2 -13    6.93    2.63
  -2   9  13    3.94    7.45
   2  -9 -13    7.97    5.67
   9  -7  13   -0.61    4.92
  -9   7 -13    9.12    8.29
   7   2 -13    6.97    3.77
  -7  -2  13    3.46    7.27
   2  -9 -13    7.04    8.13
  -7  -2  13    3.53    6.03
  -2   9  16  108.17   13.29
   2  -9 -16  119.51   10.68
   7   2 -16  117.40   10.20
   2  -9 -16  123.44   12.42
  -9   7 -16   98.37   13.25
  -7  -2  16  116.20   11.51
  -7  -2  16   98.68   12.20
  -7  -2  19  538.37   26.55
   7   2 -19  543.07   23.15
  -2   9  19  539.50   28.32
   7   2 -19  516.27   22.00
   2  -9 -19  508.29   22.54
   2  -9 -19  537.37   23.69
  -9   7 -19  541.12   27.42
  -7  -2  22  713.30   32.11
  -2   9  22  710.09   34.99
   7   2 -22  701.41   28.21
   2  -9 -22  739.54   29.70
   2  -9 -25  238.44   18.46
   6   3  24  178.41   17.64
   3  -9  24  193.44   16.65
  -3   9 -21  638.60   31.30
   9  -6 -21  691.09   32.09
   3  -9  21  642.76   28.25
   6   3  21  710.16   26.04
  -9   6  21  697.37   26.86
   3  -9  21  647.40   25.92
  -9   6  21  646.92   29.87
  -9   6  18   97.82   12.01
   3  -9  18  108.91   12.00
   9  -6 -18  112.65   13.35
   3  -9  18  104.11   11.03
  -9   6  18   89.01   10.32
  -3   9 -15  320.37   18.50
  -3   9 -15  333.62   20.80
   3  -9  15  286.27   16.20
  -9   6  15  303.82   14.81
   3  -9  15  311.76   17.73
   9  -6 -15  303.21   18.71
   3  -9  15  307.48   14.41
  -9   6  15  271.36   17.03
  -3   9 -12 1213.02   34.22
   3  -9  12 1186.42   39.90
   9  -6 -12 1210.77   40.37
  -3   9 -12 1193.00   38.98
  -9   6  12 1215.97   38.66
  -3   9 -12 1168.89   41.23
  -9   6  12 1140.89   28.95
   3  -9  12 1161.09   35.99
  -9   6  12 1175.84   33.43
   3  -9  12 1284.85   33.41
   3  -9   9  596.63   17.15
  -3   9  -9  618.37   17.92
  -3   9  -9  574.67   25.54
   3  -9   9  592.25   21.45
  -9   6   9  606.22   18.61
  -9   6   9  553.11   23.21
   9  -6  -9  602.32   25.33
  -9   6   9  580.86   14.73
   3  -9   9  607.04   26.31
   6   3   6  465.04   22.31
  -6  -3  -6  436.49   13.38
  -3   9  -6  443.67   16.07
  -9   6   6  446.60   13.30
  -3   9  -6  450.68   20.30
  -9   6   6  405.06   16.99
   3  -9   6  453.56   12.29
  -3   9  -6  446.72   21.00
  -9   6   6  443.37   19.41
  -3   9  -6  423.22   12.72
  -9   6   6  441.66   13.30
   3  -9   6  440.51   22.32
   6   3   3 1304.06   39.11
  -3   9  -3 1280.56   38.49
  -6  -3  -3 1286.94   34.62
  -9   6   3 1258.64   31.01
  -9   6   3 1181.80   26.81
  -3   9  -3 1212.86   37.80
  -3   9  -3 1274.69   32.23
  -6  -3  -3 1311.23   28.39
  -9   6   3 1266.10   33.69
  -9   6   3 1342.04   38.10
  -3   9   0   49.49    5.17
  -6  -3   0   53.57    5.93
  -3   9   0   57.04    7.93
   6   3   0   54.31    7.65
   3  -9   0   66.22    9.65
  -9   6   0   51.55    5.66
   3  -9   0   39.77    6.81
  -6  -3   0   45.29    5.41
  -3   9   0   55.01    7.86
   6   3  -3  167.52   10.56
   3  -9  -3  175.65    9.48
  -3   9   3  156.64   11.97
  -6  -3   3  180.35    8.91
  -6  -3   3  182.93    9.39
  -3   9   3  170.20   11.03
   3  -9  -3  164.31   11.24
  -9   6  -3  169.03    9.44
   3  -9  -3  200.95   14.96
  -9   6  -3  157.56    4.88
   3  -9  -6  777.65   31.11
   6   3  -6  704.30   24.86
  -9   6  -6  775.39   24.42
   6   3  -6  764.61   24.49
  -3   9   6  729.42   27.88
  -3   9   6  706.41   24.79
  -9   6  -6  793.87   20.13
  -6  -3   6  788.31   24.12
   3  -9  -6  786.40   25.54
   3  -9  -6  756.75   23.63
   6   3  -9  985.89   27.76
   6   3  -9  925.85   25.69
   3  -9  -9  916.65   28.69
  -9   6  -9  901.62   28.87
   6   3  -9  924.60   27.15
  -3   9   9  914.40   32.96
   9  -6   9 1005.32   28.29
  -3   9   9  924.89   25.02
  -9   6  -9  954.35   25.59
   3  -9  -9  932.70   28.33
   3  -9  -9  946.31   28.23
   3  -9  -9  926.19   34.30
  -6  -3   9  830.52   27.88
   3  -9 -12  140.33   12.61
  -9   6 -12  129.41   10.33
  -6  -3  12  128.07   10.25
   3  -9 -12  132.17    8.52
   6   3 -12  125.31    7.86
   3  -9 -12  123.45    9.78
   6   3 -12  145.85    8.67
   9  -6  12  131.27   12.79
  -3   9  12  142.16   12.79
   6   3 -12  115.53    7.21
  -3   9  15 1750.72   53.07
   3  -9 -15 1689.54   47.83
   3  -9 -15 1660.33   50.35
   6   3 -15 1662.20   41.88
   9  -6  15 1655.69   52.35
  -9   6 -15 1694.04   53.21
   6   3 -15 1637.02   44.80
  -6  -3  15 1675.94   48.48
  -6  -3  15 1696.99   52.15
  -9   6 -18    2.83    9.61
   9  -6  18    2.57    8.43
  -6  -3  18   10.59    9.36
   3  -9 -18   -2.11    7.91
   3  -9 -18   -2.03    7.13
   6   3 -18    0.80    5.97
   6   3 -18    3.47    4.28
  -3   9  18    1.43    9.43
   9  -6  21    6.32    8.93
  -6  -3  21   13.07   10.26
  -3   9  21   20.57   10.38
   3  -9 -21    4.69    9.00
   6   3 -21    6.66    7.71
   3  -9 -24  193.40   17.33
   4  -9  25  105.85   13.72
  -9   5  25   98.23   13.25
   9  -5 -22   15.59   11.15
   4  -9  22   10.15    7.38
  -5  -4 -22   -1.55    9.80
   5   4  22   10.59    7.18
  -4   9 -22   15.73   11.80
   4  -9  22    9.33    8.89
  -9   5  22   13.01    8.18
  -9   5  22    2.87   10.46
  -9   5  19    3.90    7.19
  -9   5  19   15.35    8.98
   4  -9  19   23.37    8.74
   4  -9  19   13.66    7.75
  -5  -4 -19    8.43    9.15
   9  -5 -19   12.55    9.73
  -9   5  16   45.95    8.09
   9  -5 -16   55.16    9.98
   4  -9  16   52.05    8.63
  -9   5  16   61.21   10.08
  -5  -4 -16   61.80   10.34
  -4   9 -16   54.93   11.69
   4  -9  16   56.13    9.70
  -4   9 -13  872.42   33.85
   4  -9  13  808.05   27.88
  -9   5  13  862.47   27.66
   4  -9  13  887.04   32.37
  -9   5  13  871.47   31.18
  -5  -4 -13  855.20   31.93
   4  -9  13  835.10   24.96
   9  -5 -13  794.73   31.30
   4  -9  10  901.73   33.73
  -5  -4 -10  954.38   32.97
   4  -9  10  948.95   24.53
  -4   9 -10  873.09   32.09
  -9   5  10  898.38   25.94
  -4   9 -10 1004.54   35.06
  -9   5  10  942.25   27.88
   4  -9  10  940.69   28.68
   5   4  10  894.11   35.49
   9  -5 -10  975.93   33.76
  -9   5  10  906.15   31.67
  -4   9  -7  430.97   19.86
  -9   5   7  430.43   19.30
  -4   9  -7  424.81   20.48
  -9   5   7  436.98   15.24
   4  -9   7  484.60   16.76
  -9   5   7  473.47   18.44
   5   4   7  463.18   22.22
   4  -9   7  428.34   21.92
  -5  -4  -7  475.74   20.66
  -5  -4  -7  443.37   12.59
  -4   9  -7  424.66   17.07
  -4   9  -4  169.31    9.60
   5   4   4  162.41   12.23
  -9   5   4  169.50   10.22
  -9   5   4  147.95    6.49
  -4   9  -4  168.55   11.81
   4  -9   4  190.92    9.11
  -4   9  -4  162.72   11.85
  -9   5   4  164.56    7.61
  -5  -4  -4  169.76   11.73
  -9   5   4  172.53   12.00
  -9   5   1  345.21   11.12
   5   4   1  344.20   16.75
  -5  -4  -1  337.23   16.61
  -9   5   1  367.41   15.08
  -4   9  -1  349.32   17.17
  -5  -4  -1  373.75   15.11
   4  -9   1  381.65   17.09
  -4   9  -1  353.23   16.57
  -4   9  -1  349.63   10.91
  -5  -4  -1  368.97   12.80
   4  -9   1  374.60   20.41
  -9   5   1  341.74   11.26
  -4   9  -1  332.52   13.71
  -5  -4   2   31.07    6.16
   4  -9  -2   30.75    8.10
   9  -5   2   32.03    7.09
  -4   9   2   20.98    4.86
  -5  -4   2   20.71    4.67
  -4   9   2   39.78    6.72
   5   4  -2   29.19    6.20
  -5  -4   2   18.37    3.82
  -4   9   2   27.23    3.26
  -9   5  -2   25.69    5.16
   4  -9  -2   30.40    6.19
  -4   9   2   14.68    5.28
  -9   5  -2   23.18    3.33
   4  -9  -2   21.20    4.15
   9  -5   5  773.61   29.26
   4  -9  -5  736.93   30.22
   4  -9  -5  758.18   22.37
  -4   9   5  804.79   27.80
   5   4  -5  775.39   25.19
  -5  -4   5  767.02   22.47
  -4   9   5  746.99   21.04
  -4   9   5  712.81   24.12
   4  -9  -5  759.49   24.71
  -9   5  -5  749.59   24.75
  -5  -4   5  774.73   27.25
  -9   5  -5  768.28   21.13
   4  -9  -8 1089.98   38.09
   5   4  -8 1112.55   32.17
  -4   9   8 1082.91   35.88
  -4   9   8 1121.69   31.04
  -9   5  -8 1087.14   29.76
   4  -9  -8 1139.45   31.04
  -5  -4   8 1131.85   31.30
   4  -9  -8 1078.08   30.91
   4  -9  -8 1040.66   32.93
  -9   5  -8 1091.43   33.41
  -5  -4   8 1065.73   35.24
   9  -5   8 1120.69   32.32
  -4   9   8 1101.45   27.06
   9  -5  11  209.03   15.37
   5   4 -11  182.76    9.12
  -9   5 -11  193.13   12.28
  -4   9  11  222.88   14.25
   5   4 -11  170.11    9.95
   4  -9 -11  167.94   13.88
  -9   5 -11  190.04   10.58
   4  -9 -11  184.88   10.99
  -4   9  11  182.01    8.61
   4  -9 -11  187.74    8.83
   5   4 -11  187.51    8.63
   4  -9 -11  187.09   12.17
  -5  -4  11  169.09   10.73
   9  -5  14   78.35   11.48
  -5  -4  14   76.00   10.33
  -4   9  14   64.99    9.85
   5   4 -14   90.67    7.58
   4  -9 -14   68.75    9.86
   5   4 -14   73.93    6.86
   4  -9 -14   67.07    8.84
  -9   5 -14   66.69    9.29
   5   4 -17   30.50    6.70
   4  -9 -17   33.55    8.93
   5   4 -17   36.34    6.22
  -4   9  17   40.92    9.40
  -9   5 -17   33.73    9.19
  -5  -4  17   34.75    9.74
   9  -5  17   56.13   10.65
   4  -9 -17   39.76    8.49
  -9   5 -20  198.60   17.37
  -4   9  20  163.32   15.79
   9  -5  20  177.97   15.99
   4  -9 -20  181.32   14.95
   5   4 -20  166.33   12.23
  -5  -4  20  204.14   16.85
   4  -9 -20  191.28   14.18
   5   4 -20  179.27   10.56
   4  -9 -23  212.18   17.92
  -5  -4  23  200.97   17.97
  -9   5 -23  206.40   18.07
   9  -5  23  181.21   16.29
   9  -5  26  350.68   21.08
  -9   4  26 1650.83   51.70
   5  -9  26 1509.52   49.85
   9  -4 -23  513.80   28.34
  -5   9 -23  569.49   29.21
  -9   4  23  533.97   27.93
  -9   4  23  545.46   25.63
   5  -9  23  562.84   25.25
   9  -4 -20  216.55   17.06
  -4  -5 -20  173.81   16.62
  -9   4  20  189.13   16.41
  -9   4  20  203.18   15.06
   5  -9  20  192.61   14.58
   5  -9  17  749.74   26.84
  -9   4  17  693.69   27.20
  -9   4  17  751.79   30.02
  -5   9 -17  704.89   31.38
   5  -9  17  703.04   28.29
   9  -4 -17  698.00   29.42
  -4  -5 -17  761.50   30.78
   9  -4 -14  174.03   13.58
   5  -9  14  176.15   14.23
  -9   4  14  180.34   13.60
  -5   9 -14  163.37   15.00
  -9   4  14  174.28   10.92
   5  -9  14  160.56    8.98
  -4  -5 -14  150.54   13.08
  -9   4  14  177.57   11.89
   5  -9  14  185.95   11.79
  -9   4  11   42.42    6.43
   5  -9  11   52.84    6.87
   9  -4 -11   45.37    8.95
  -9   4  11   51.15    7.45
   9  -4 -11   55.89    8.25
   4   5  11   32.19    9.04
  -4  -5 -11   59.48    8.97
  -5   9 -11   53.47    9.28
  -9   4  11   56.63    6.11
   5  -9  11   54.56    9.31
   5  -9  11   57.66    4.50
  -9   4  11   75.39    9.46
   9  -4  -8 3169.22   82.35
  -9   4   8 3346.38   80.92
   5  -9   8 3187.56   85.74
   9  -4  -8 3260.02   84.92
   4   5   8 3159.80   85.40
  -4  -5  -8 3125.17   70.82
  -5   9  -8 3319.66   82.89
  -9   4   8 3336.47   77.33
  -5   9  -8 3224.50   83.94
   5  -9   8 3191.27   75.72
  -9   4   8 3168.87   76.71
  -9   4   8 3286.30   82.09
  -4  -5  -8 3289.40   82.23
   9  -4  -5 1753.01   54.42
   5  -9   5 1862.33   55.99
  -5   9  -5 1820.51   48.24
   4   5   5 1884.91   53.82
  -5   9  -5 1806.28   51.46
  -9   4   5 1890.67   51.61
  -5   9  -5 1849.53   52.11
  -4  -5  -5 1778.77   50.69
  -9   4   5 1836.75   49.70
  -9   4   5 1818.95   45.88
   5  -9   5 1807.29   44.41
   9  -4  -2    3.60    4.96
  -5   9  -2    6.71    4.73
  -5   9  -2    2.66    5.08
  -9   4   2    3.98    3.01
   4   5   2   10.53    5.64
  -4  -5  -2    8.28    5.10
  -9   4   2    0.74    4.34
  -5   9  -2    2.38    3.17
  -4  -5  -2    3.65    2.71
  -5   9  -2    0.83    5.00
   5  -9   2    6.45    2.90
   9  -4  -2    9.81    6.68
  -9   4  -1  873.79   26.58
  -9   4  -1  886.24   24.31
   5  -9  -1  918.70   22.83
  -9   4  -1  913.71   28.36
  -4  -5   1  873.96   29.06
   5  -9  -1  817.14   33.23
  -4  -5   1  819.43   26.27
   4   5  -1  867.62   29.23
  -5   9   1  859.81   29.32
  -5   9   1  862.21   26.45
  -5   9   1  890.35   28.20
  -4  -5   1  863.55   22.61
  -5   9   1  878.71   24.03
   9  -4   1  826.81   30.10
   9  -4   1  892.80   33.24
  -4  -5   4  242.85   13.51
   9  -4   4  230.01   15.02
  -9   4  -4  249.33   10.46
   5  -9  -4  256.07   16.81
  -9   4  -4  230.78   13.24
  -5   9   4  226.99   13.61
   4   5  -4  270.24   13.57
  -5   9   4  242.67   11.84
  -5   9   4  242.40   11.92
   5  -9  -4  242.69    9.45
  -4  -5   4  229.24    9.24
  -5   9   4  258.18   10.36
  -9   4  -4  243.00   12.85
   9  -4   7  525.02   23.91
   5  -9  -7  525.39   24.28
   9  -4   7  540.29   23.81
  -9   4  -7  500.97   21.81
  -5   9   7  477.43   12.25
  -4  -5   7  508.33   20.96
   4   5  -7  493.09   19.27
  -5   9   7  538.85   21.50
  -9   4  -7  525.51   20.49
  -5   9   7  562.02   17.73
  -4  -5   7  548.78   17.08
  -5   9   7  519.10   17.42
  -9   4  -7  521.50   17.36
   5  -9  -7  522.05   16.67
   9  -4  10 1183.74   39.32
  -4  -5  10 1125.38   36.87
   5  -9 -10 1165.70   36.58
   4   5 -10 1118.82   33.96
  -5   9  10 1234.89   37.72
   4   5 -10 1202.35   40.70
  -9   4 -10 1168.30   33.13
   5  -9 -10 1165.44   32.38
   5  -9 -10 1236.60   40.62
  -9   4 -10 1194.90   36.62
  -5   9  10 1151.38   29.33
  -5   9  10 1135.83   33.40
   4   5 -10 1191.47   28.93
   4   5 -13 2283.93   58.50
   4   5 -13 2381.39   67.24
  -9   4 -13 2227.18   58.20
   5  -9 -13 2324.81   57.93
   5  -9 -13 2181.19   63.82
  -9   4 -13 2270.05   62.29
   9  -4  13 2156.52   65.74
   4   5 -13 2310.88   53.31
   5  -9 -13 2293.99   62.02
  -5   9  13 2291.06   62.75
   4   5 -13 2234.32   54.63
  -4  -5  13 2221.71   63.94
   4   5 -16  234.41   12.53
   4   5 -16  223.20   17.41
  -4  -5  16  200.37   15.83
   5  -9 -16  192.62   14.69
  -9   4 -16  196.46   14.71
   9  -4  16  231.28   17.31
   5  -9 -16  238.59   15.63
  -5   9  16  218.60   15.61
   4   5 -16  200.90   11.20
   4   5 -19  215.76   17.96
  -4  -5  19  237.60   17.66
  -5   9  19  209.59   16.50
  -9   4 -19  234.83   17.33
   9  -4  19  267.12   19.16
   4   5 -19  252.75   13.80
   5  -9 -19  216.67   16.22
   4   5 -19  227.90   12.95
   5  -9 -19  231.56   15.76
  -5   9  22  169.70   15.81
   4   5 -22  164.76   11.94
   9  -4  22  153.33   15.58
  -9   4 -22  182.68   17.27
   4   5 -22  171.69   17.44
   5  -9 -22  158.30   15.75
   4   5 -25  574.36   28.24
   9  -4  25  448.36   24.82
   6  -9  27  113.32   14.49
  -9   3  24    6.56   10.38
   6  -9  24   12.02    8.94
   9  -3 -24    9.27   11.12
  -9   3  21    4.84    9.12
   9  -3 -21    1.39    9.06
   6  -9  21    2.95    7.51
  -9   3  21    1.37    9.45
  -9   3  18  554.35   24.59
   6  -9  18  563.14   22.57
   9  -3 -18  558.68   25.75
  -3  -6 -18  546.70   26.19
   3   6  18  487.80   29.49
  -6   9 -18  549.72   27.50
   6  -9  15  131.98    8.36
  -3  -6 -15  144.62   13.01
  -3  -6 -15  142.01    9.69
  -9   3  15  135.94   11.66
   6  -9  15  149.46   10.77
   9  -3 -15  126.01   12.47
   6  -9  15  145.46   13.15
  -6   9 -15  127.32   14.07
   9  -3 -15  136.87   12.36
  -3  -6 -12    2.26    3.26
   9  -3 -12    2.05    6.21
  -3  -6 -12    6.15    6.32
  -9   3  12    3.25    6.02
  -3  -6 -12    5.33    4.70
  -6   9 -12    5.04    7.30
   6  -9  12    8.27    3.20
   9  -3 -12    7.67    7.69
   6  -9  12    6.09    7.37
   6  -9  12    2.95    4.83
   6  -9   9   35.33    8.89
   9  -3  -9   31.57    8.70
   9  -3  -9   41.19    7.46
  -3  -6  -9   39.37    3.14
   3   6   9   39.65    9.07
  -9   3   9   31.68    6.09
  -6   9  -9   27.33    7.93
  -3  -6  -9   43.33    7.48
  -9   3   9   38.13    6.47
   6  -9   9   30.10    4.79
  -9   3   9   26.00    6.73
   6  -9   6    3.18    2.75
   3   6   6    6.84    6.59
  -6   9  -6   -4.60    5.17
  -9   3   6    0.70    5.22
  -6   9  -6   -1.01    6.41
  -3  -6  -6   -0.84    4.91
  -9   3   6    5.03    4.47
   9  -3  -6   -2.42    4.89
   6  -9   6    6.50    7.37
  -9   3   6   -1.74    5.35
   9  -3  -6   -2.45    6.74
   9  -3  -3    1.76    5.09
   6  -9   3    3.55    1.73
   6  -9   3    4.38    1.47
  -9   3   3    2.14    2.06
  -6   9  -3    2.61    5.57
   3   6   3    4.09    5.91
  -6   9  -3    3.48    5.32
  -9   3   3   -1.66    4.76
  -3  -6  -3    4.66    1.63
  -3  -6  -3    0.79    4.99
   9  -3  -3    1.26    6.48
  -6   9   0 1914.15   50.71
   3   6   0 1745.05   50.83
  -9   3   0 1861.32   44.95
   9  -3   0 1747.96   54.79
   6  -9   0 1772.88   55.60
  -6   9   0 1761.02   48.70
   9  -3   0 1833.00   51.86
  -6   9   0 1802.45   45.87
  -3  -6   0 1764.77   49.06
  -9   3   0 1816.77   49.95
   6  -9  -3   54.25    9.58
   9  -3   3   40.98    7.58
  -9   3  -3   59.82    6.10
  -9   3  -3   46.78    6.35
   3   6  -3   50.38    7.19
  -6   9   3   56.13    7.35
  -6   9   3   46.45    5.34
   6  -9  -3   42.00    2.78
  -6   9   3   52.40    6.39
  -9   3  -3   40.56    6.65
  -3  -6   3   40.74    6.40
  -3  -6   6  123.40    9.86
   6  -9  -6  142.52   13.19
  -9   3  -6  123.91    8.49
   9  -3   6  152.22   12.99
   9  -3   6  139.90   12.56
  -9   3  -6  138.87   10.84
  -6   9   6  119.59    9.87
   3   6  -6  127.42    9.85
   3   6  -6  124.69   12.25
  -6   9   6  120.99    7.75
  -6   9   6  130.31    8.48
  -9   3  -6  116.58    9.94
   6  -9  -6  133.47    6.35
   9  -3   9   47.92    8.96
   3   6  -9   46.95    2.91
   6  -9  -9   41.43    8.70
  -6   9   9   52.39    6.49
   9  -3   9   37.71    9.04
   6  -9  -9   56.68    8.39
  -6   9   9   45.63    7.01
   3   6  -9   42.93    6.76
  -6   9   9   43.83    4.50
  -9   3  -9   45.03    7.44
  -6   9   9   37.06    3.48
   6  -9  -9   42.22    5.12
  -3  -6   9   50.67    7.54
  -9   3  -9   60.69    6.80
   3   6 -12    7.22    3.45
   6  -9 -12    2.07    6.38
   3   6 -12    2.40    5.32
  -6   9  12    8.30    6.09
   6  -9 -12   12.85    5.00
  -6   9  12    4.60    5.25
   3   6 -12    2.69    7.57
  -9   3 -12    7.18    6.16
   9  -3  12    5.60    7.50
   6  -9 -12   -2.45    7.22
   3   6 -15   -2.66    4.39
   6  -9 -15    7.88    7.54
  -6   9  15   -2.01    6.96
   3   6 -15   -1.64    5.95
   9  -3  15    4.24    9.14
   6  -9 -15    3.56    7.94
  -9   3 -15    2.29    6.37
   9  -3  15   10.74    7.68
  -6   9  15    2.74    7.11
   6  -9 -15   -3.86    6.18
   3   6 -15    2.87    8.69
   3   6 -18  685.11   25.38
   3   6 -18  740.41   32.42
  -6   9  18  698.89   28.10
   6  -9 -18  660.28   28.81
   9  -3  18  694.74   30.98
  -9   3 -18  703.92   29.70
  -3  -6  18  621.46   28.70
  -9   3 -21   -1.42    9.54
   9  -3  21    2.85    9.12
   3   6 -21   21.76   11.46
  -3  -6  21    7.98    7.56
  -3  -6  21    7.23    9.34
   3   6 -21    8.82    7.22
  -6   9  21    1.24    8.49
   6  -9 -21   -1.42    9.01
   3   6 -24    6.24   10.81
   6  -9 -24   20.69   12.65
   9  -3  24    4.16   10.46
  -9   2  22 1456.59   48.03
   7  -9  22 1409.81   43.89
  -2  -7 -22 1348.75   42.69
   9  -2 -22 1507.55   49.04
  -9   2  22 1454.88   49.39
  -9   2  19  745.68   30.98
  -7   9 -19  769.54   33.44
   9  -2 -19  754.29   27.97
   9  -2 -19  746.11   30.77
  -2  -7 -19  760.68   28.66
   7  -9  19  746.20   26.93
   2   7  19  717.38   35.97
  -2  -7 -19  777.61   26.35
  -9   2  19  747.33   30.42
   7  -9  16  156.43   10.63
   9  -2 -16  159.61   13.53
   9  -2 -16  162.63   13.38
  -2  -7 -16  139.78    9.67
   2   7  16  130.24   15.16
  -9   2  16  192.51   14.27
  -9   2  16  175.99   14.21
  -7   9 -16  164.49   15.41
  -2  -7 -16  157.19   13.99
   9  -2 -13   -4.45    7.46
  -9   2  13    7.25    6.22
  -2  -7 -13    2.38    4.54
  -2  -7 -13   -1.04    6.67
  -2  -7 -13    7.99    4.07
   9  -2 -13    2.01    6.82
   2   7  13   -7.47    8.40
  -9   2  13    9.38    7.19
   7  -9  13    3.98    3.56
  -7   9 -13    2.65    8.17
   7  -9  13    3.14    4.58
   7  -9  10  639.31   18.52
   9  -2 -10  638.45   24.78
  -2  -7 -10  626.07   17.51
   7  -9  10  644.17   16.57
  -9   2  10  697.17   26.48
   7  -9  10  713.06   29.56
   9  -2 -10  592.27   26.64
  -2  -7 -10  666.81   18.43
  -7   9 -10  661.67   27.91
  -9   2  10  674.67   22.90
  -9   2  10  646.04   24.05
  -9   2  10  644.23   25.23
  -2  -7 -10  685.96   25.24
  -7   9  -7 1565.95   45.63
  -9   2   7 1560.50   43.26
   7  -9   7 1542.01   48.64
   9  -2  -7 1499.05   41.38
   9  -2  -7 1532.88   47.06
  -9   2   7 1500.86   43.56
  -2  -7  -7 1511.78   41.87
   2   7   4 1040.15   33.98
  -7   9  -4 1004.06   31.26
  -7   9  -4 1162.80   33.63
  -2  -7  -4 1066.17   30.35
  -9   2   4 1068.06   32.09
  -9   2   4 1095.24   32.64
   9  -2  -4 1140.40   32.48
   9  -2  -4 1026.86   36.16
  -9   2   1 1333.50   37.44
  -7   9  -1 1376.58   39.72
  -2  -7  -1 1296.38   38.28
   7  -9   1 1359.17   46.40
  -7   9  -1 1328.49   39.75
   2   7   1 1298.69   41.55
  -9   2   1 1349.61   33.56
  -9   2   1 1426.12   41.29
   9  -2  -1 1385.87   41.69
   9  -2  -1 1330.81   45.23
   9  -2   2  856.88   31.31
  -2  -7   2  903.14   28.30
   7  -9  -2  873.30   34.99
  -7   9   2  909.89   29.09
  -9   2  -2  910.57   26.18
   2   7  -2  850.43   30.12
  -9   2  -2  912.20   27.84
  -7   9   2  861.59   27.52
  -7   9   2  863.54   26.87
  -9   2  -2  832.16   29.68
   9  -2   2  913.54   34.74
   9  -2   5  253.95   15.97
  -9   2  -5  228.35   12.01
   7  -9  -5  234.40   16.88
  -9   2  -5  242.09   12.66
   2   7  -5  204.11   13.16
  -7   9   5  264.01   13.66
   2   7  -5  235.29   15.68
  -7   9   5  234.38   10.98
  -7   9   5  233.97   12.01
  -9   2  -5  261.02   14.78
  -2  -7   5  254.29   13.07
  -7   9   8  435.90   12.18
  -9   2  -8  463.38   20.86
   2   7  -8  440.96   19.40
  -7   9   8  464.92   18.78
   2   7  -8  439.82   22.54
  -7   9   8  448.39   17.95
  -7   9   8  441.11   14.30
  -2  -7   8  457.19   18.71
   7  -9  -8  444.68   23.45
   9  -2   8  493.08   23.26
   9  -2   8  435.08   22.50
  -7   9  11 2373.18   62.27
   7  -9 -11 2370.92   56.36
   9  -2  11 2354.98   66.84
  -9   2 -11 2391.95   65.82
  -7   9  11 2434.51   62.72
   2   7 -11 2455.58   63.76
   7  -9 -11 2308.92   65.59
  -2  -7  11 2338.89   62.63
  -7   9  14  139.25   11.29
   9  -2  14  115.27   14.11
   2   7 -14  109.60   10.87
   7  -9 -14  112.79   12.50
  -9   2 -14  109.44   11.85
  -2  -7  14  141.00   13.23
   7  -9 -14  108.28    8.52
  -7   9  14  121.30   11.02
   9  -2  14  147.85   13.19
   2   7 -14  123.60   14.06
   2   7 -17 1006.64   33.21
   9  -2  17  928.00   37.46
   7  -9 -17  951.92   35.97
   9  -2  17  932.06   33.59
   2   7 -17  976.20   38.54
  -2  -7  17  959.25   35.60
  -9   2 -17  926.46   35.83
  -7   9  17  897.76   33.35
  -7   9  17  938.12   32.65
   2   7 -20  767.29   34.67
  -9   2 -20  773.70   33.85
   9  -2  20  796.52   34.09
  -2  -7  20  779.17   29.04
   7  -9 -20  819.23   33.92
  -2  -7  20  838.01   33.78
   2   7 -20  802.27   29.68
   7  -9 -23   96.95   14.72
   2   7 -23  102.90   15.65
   9  -2  23  118.95   14.91
   2   7 -23  123.45   13.09
   9  -1 -23  128.66   14.65
  -9   1  23  141.82   16.15
   1   8  20  214.76   20.67
  -8   9 -20  255.11   19.89
   8  -9  20  231.29   14.31
   9  -1 -20  235.77   16.91
  -1  -8 -20  237.93   14.30
  -9   1  20  248.87   18.26
  -9   1  20  246.51   18.25
  -1  -8 -17   65.11   10.58
  -8   9 -17   80.63   12.62
  -1  -8 -17   76.52    8.37
   9  -1 -17   77.77   10.54
   1   8  17   75.59   13.82
   9  -1 -17   73.18   10.59
  -9   1  17   79.32   10.90
   8  -9  17   86.59    8.48
  -9   1  17   88.66   11.59
  -1  -8 -14 1335.36   42.60
   9  -1 -14 1289.09   39.56
  -1  -8 -14 1196.60   33.28
  -1  -8 -14 1223.81   40.14
  -9   1  14 1299.80   40.68
  -9   1  14 1199.17   39.95
   1   8  14 1205.26   44.84
  -8   9 -14 1351.74   45.02
   9  -1 -14 1264.48   41.45
   8  -9  14 1167.38   32.66
   9  -1 -11   30.41    7.03
  -1  -8 -11   24.81    4.19
   1   8  11   14.11    7.95
  -9   1  11   31.17    7.49
  -1  -8 -11   31.51    3.46
   8  -9  11   28.53    3.64
   9  -1 -11   31.83    9.30
   8  -9  11   32.27    4.07
  -9   1  11   27.99    8.08
  -8   9 -11   29.83    9.47
  -1  -8 -11   22.12    7.05
  -9   1  11   31.11    7.79
  -9   1   8  276.09   15.28
  -9   1   8  301.99   16.73
   9  -1  -8  234.16   17.15
  -8   9  -8  282.74   17.73
  -1  -8  -8  254.58   13.95
   9  -1  -8  271.35   14.00
  -9   1   5  173.56   11.89
  -8   9  -5  190.90   13.62
   9  -1  -5  144.88   11.22
   9  -1  -5  171.61   14.77
  -1  -8  -5  178.53   11.06
  -9   1   5  157.91   12.49
  -9   1   2  776.88   27.92
  -8   9  -2  713.10   25.44
  -9   1   2  720.58   19.68
   1   8   2  708.24   28.14
  -1  -8  -2  774.54   24.55
  -8   9  -2  702.27   26.39
  -9   1   2  726.94   23.17
   9  -1  -2  722.21   26.91
  -9   1   2  740.11   26.37
   9  -1  -2  710.31   30.82
  -9   1  -1    2.35    4.80
  -8   9   1    0.77    4.76
  -9   1  -1    2.32    4.08
   1   8  -1    7.17    6.04
  -1  -8   1    7.76    4.60
  -9   1  -1    2.96    5.55
   9  -1   1   -1.41    7.69
  -8   9   1   -2.20    5.09
   9  -1   1    5.24    6.35
   1   8  -1   -3.42    7.02
  -8   9   1   -2.22    5.06
   1   8  -4 1384.73   42.95
  -9   1  -4 1356.26   38.36
  -8   9   4 1401.82   39.92
   1   8  -4 1431.63   45.63
  -8   9   4 1405.35   38.08
  -8   9   4 1398.79   40.03
   9  -1   4 1394.10   44.99
  -9   1  -4 1439.16   43.55
  -9   1  -4 1404.57   38.88
  -1  -8   4 1432.68   39.12
  -8   9   7  173.89    6.51
  -1  -8   7  215.94   11.80
   1   8  -7  168.79   14.30
  -8   9   7  188.24    8.95
  -8   9   7  159.24   11.06
   9  -1   7  179.60   14.65
   9  -1   7  156.86   14.19
  -9   1  -7  212.02   14.25
  -8   9   7  169.04   10.82
   1   8  -7  175.88   12.66
  -8   9  10  242.41   13.24
   1   8 -10  283.46   16.16
   9  -1  10  260.48   17.56
   1   8 -10  251.42   17.98
  -8   9  10  256.31   14.18
   9  -1  10  246.36   17.87
  -1  -8  10  289.82   14.13
   8  -9 -10  249.88   16.49
  -9   1 -10  268.46   16.74
   8  -9 -13   10.04    7.67
  -8   9  13    8.48    5.82
   1   8 -13   -2.04    6.87
  -1  -8  13   -1.19    7.48
  -1  -8  13    4.54    7.87
   9  -1  13    7.17    7.48
  -9   1 -13    2.45    7.35
  -8   9  13    4.78    6.66
   1   8 -16  349.81   18.87
  -9   1 -16  336.62   20.77
   1   8 -16  377.95   23.53
  -8   9  16  378.63   19.64
   9  -1  16  375.90   23.09
  -8   9  16  379.38   17.46
  -1  -8  16  348.21   20.33
   9  -1  16  356.66   19.71
   8  -9 -16  358.55   21.24
  -1  -8  16  359.11   19.79
   1   8 -19  182.10   14.87
  -9   1 -19  179.77   16.77
   1   8 -19  187.46   18.12
  -8   9  19  157.71   14.70
  -1  -8  19  203.59   16.40
   9  -1  19  175.46   14.24
   9  -1  19  170.23   17.22
  -1  -8  19  164.07   13.89
   8  -9 -19  173.48   16.66
   1   8 -22  573.81   29.92
   9  -1  22  459.91   26.79
  -1  -8  22  540.67   27.71
   1   8 -22  494.18   24.21
   1   8 -25   97.65   12.54
   9   0 -21  587.88   26.71
  -9   0  21  564.09   28.03
  -9   0  21  605.41   28.85
   9   0 -18   63.65   10.34
   0  -9 -18   63.31    8.22
   9   0 -18   64.20   10.48
  -9   9 -18   69.89   13.25
   0   9  18   69.28   13.83
   0  -9 -18   66.62   10.77
  -9   0  18   67.05   11.22
  -9   0  18   65.23   11.91
   9   0 -15  105.20   10.46
   0   9  15  116.63   15.14
   0  -9 -15  134.63    9.11
   0  -9 -15  137.57   13.82
   9   0 -15  128.67   13.16
  -9   0  15  119.17   12.71
  -9   0  15  117.94   12.34
  -9   9 -15  159.52   16.02
  -9   0  12  897.10   33.81
  -9   0  12  895.42   31.62
  -9   0  12  879.57   32.62
  -9   9 -12  916.08   35.68
   9   0 -12  872.98   29.89
   0  -9 -12  860.99   25.36
   0  -9 -12  921.85   35.20
   0   9  12  913.54   36.50
   0  -9 -12  957.94   31.60
   9   0 -12  904.07   34.57
  -9   0   9  676.67   28.39
  -9   0   9  725.77   26.85
  -9   9  -9  758.91   30.72
   9   0  -9  720.73   24.87
   0  -9  -9  746.28   31.42
   0   9   9  731.82   30.94
   0  -9  -9  751.52   25.70
   9   0  -9  684.79   30.38
  -9   0   6  233.39   15.18
  -9   0   6  222.40   13.47
  -9   9  -6  233.01   16.01
   0  -9  -6  234.61   17.88
   0   9   6  222.68   16.24
   9   0  -6  247.79   14.19
   9   0  -6  220.92   17.22
   0  -9  -6  249.14   12.75
   9   0  -3  949.15   32.62
  -9   0   3  963.42   33.86
  -9   9  -3 1013.36   31.89
  -9   0   3  966.21   31.77
  -9   9  -3  988.24   33.67
   9   0  -3  949.62   38.05
   0  -9  -3  981.79   29.32
   0   9   0   10.08    7.01
  -9   9   0   12.07    5.43
   0   9   0    9.20    7.08
   0  -9   0   13.30    4.85
  -9   0   0    6.73    4.64
  -9   0   0   12.78    6.83
   9   0   0   10.68    8.14
   9   0   0   29.85    7.95
  -9   9   0    6.84    5.65
  -9   9   0    8.50    5.49
  -9   0   0   10.39    5.51
  -9   9   3   43.21    7.34
   9   0   3   40.88    9.01
  -9   0  -3   42.06    6.13
  -9   0  -3   42.50    6.26
   0   9  -3   45.77    8.40
  -9   9   3   51.23    7.09
   0   9  -3   37.61    8.78
  -9   9   3   46.76    6.82
  -9   9   3   39.46    2.54
  -9   0  -3   52.08    8.72
   0  -9   3   53.73    6.43
   0  -9   6  628.88   28.98
  -9   0  -6  610.24   21.10
   9   0   6  612.37   27.89
   0   9  -6  636.01   27.69
  -9   9   6  613.97   19.92
  -9   9   6  588.29   23.35
  -9   9   6  615.74   21.60
   0   9  -6  644.28   26.03
  -9   0  -6  606.18   25.98
  -9   9   6  612.49   16.82
   0  -9   6  649.98   21.27
   9   0   6  614.36   28.54
   0  -9   9  815.86   33.71
   9   0   9  873.33   35.58
  -9   9   9  885.58   27.14
   0   9  -9  832.47   31.19
  -9   0  -9  887.00   32.95
   0   9  -9  880.99   34.68
   9   0   9  857.88   33.96
   0  -9   9  838.84   26.82
  -9   9   9  844.69   23.74
  -9   9   9  801.31   29.31
   9  -9 -12  204.74   16.20
   0  -9  12  188.66   15.53
  -9   0 -12  209.79   15.85
   0  -9  12  177.35   11.53
   0   9 -12  196.03   17.18
   9   0  12  179.83   15.31
   0  -9  12  209.21   14.62
   0   9 -12  212.38   15.03
   9   0  12  164.52   16.71
  -9   9  12  195.19   11.27
  -9   9  12  173.86   13.06
   0   9 -15 1242.11   41.76
  -9   0 -15 1196.56   43.69
  -9   9  15 1230.14   41.08
   0  -9  15 1275.56   42.17
   0  -9  15 1267.74   42.46
   9  -9 -15 1357.88   45.61
   9   0  15 1214.04   42.04
   9   0  18   -2.30    8.46
   0  -9  18    4.62    8.30
   0   9 -18    8.42    8.76
  -9   9  18    3.68    8.44
   0   9 -18  -10.10   11.89
  -9   0 -18   -1.49    9.55
   9   0  18   -1.60    9.86
   9  -9 -18   -3.03    9.41
   0  -9  18   14.27    9.34
   9   0  21   23.22    9.43
   9   0  21   33.20   12.45
   0  -9  21   31.34   11.56
  -9   9  21   16.49   10.08
   0   9 -21   31.16   10.78
   0  -9  21   26.40    9.55
 -10   9  20  590.99   28.69
   1 -10  20  594.90   26.67
  -1  10 -20  536.51   27.57
   1 -10  20  608.57   28.74
   9   1  20  603.19   26.74
 -10   9  17  182.92   15.63
  -1  10 -17  161.05   15.43
   1 -10  17  159.21   14.93
   1 -10  17  165.27   15.16
   9   1  17  152.80   16.98
  -9  -1 -17  148.08   15.79
   9   1  17  175.82   15.89
  -1  10 -14 1790.66   53.86
   9   1  14 1681.20   53.38
   1 -10  14 1759.61   54.43
  -1  10 -14 1711.96   56.87
   1 -10  14 1734.73   51.75
 -10   9  14 1700.31   51.76
   1 -10  14 1638.44   45.90
  -9  -1 -14 1727.53   55.03
   9   1  14 1595.94   56.64
  -9  -1 -11  262.66   17.93
  -1  10 -11  240.40   16.58
 -10   9  11  216.89   15.01
  -1  10 -11  215.77   18.48
   9   1  11  253.63   18.17
   1 -10  11  256.52   18.41
   1 -10  11  219.63   11.86
   9   1  11  223.90   19.48
   1 -10  11  252.50   15.95
   9   1   8  203.82   17.00
  -1  10  -8  151.99   15.03
 -10   9   8  183.46   13.28
   9   1   8  200.28   17.34
   1 -10   8  168.26    9.81
   1 -10   8  163.94   15.77
  -1  10  -8  194.13   14.82
 -10   9   8  180.36   10.35
  -9  -1  -8  175.64   14.57
  -9  -1  -5  335.72   13.64
  -1  10  -5  322.94   19.66
 -10   9   5  343.72   14.87
  -9  -1  -5  356.12   19.50
   1 -10   5  345.61   13.28
   1 -10   5  341.51   22.16
  -1  10  -5  308.37   18.45
 -10   9   5  331.44   14.43
 -10   9   5  348.89   17.75
   9   1   5  323.22   20.55
   9   1   2 1013.48   37.35
  -1  10  -2 1077.11   38.04
 -10   9   2 1141.51   35.69
 -10   9   2 1087.74   33.59
 -10   9   2 1035.56   31.75
   1 -10   2 1006.49   28.87
  -9  -1  -2 1100.00   37.38
  -9  -1  -2 1076.97   29.16
   1 -10  -1  228.66   19.31
   9   1  -1  226.07   15.58
  -9  -1   1  240.92   14.10
 -10   9  -1  246.45   15.11
 -10   9  -1  240.29   13.17
  -1  10   1  233.75   16.06
   1 -10  -1  250.10   11.17
  -9  -1   1  237.77   15.91
   1 -10  -4 2405.08   59.05
  -1  10   4 2365.21   68.54
   9   1  -4 2388.98   64.43
  -9  -1   4 2442.40   62.96
   1 -10  -4 2325.50   72.37
 -10   9  -4 2375.38   66.62
  -9  -1   4 2352.23   66.75
   1 -10  -7  524.26   19.57
 -10   9  -7  498.38   24.56
  -9  -1   7  527.20   21.61
  -1  10   7  540.16   25.88
  -9  -1   7  559.49   24.82
   1 -10  -7  519.56   27.50
   9   1  -7  530.28   21.37
   9   1 -10  538.48   20.52
 -10   9 -10  513.54   26.05
   9   1 -10  540.17   27.14
  -9  -1  10  588.10   26.21
  -9  -1  10  550.05   22.80
   1 -10 -10  595.16   28.33
  -1  10  10  580.41   27.95
   9   1 -13   26.27    7.16
   1 -10 -13   39.19    6.45
  -1  10  13   20.29   10.47
  -9  -1  13   23.60    7.98
 -10   9 -13   32.32   10.33
  -9  -1  13   38.28    9.64
   9   1 -13   56.50   11.88
  -9  -1  13   18.31    8.78
   1 -10 -13   30.60    9.73
 -10   9 -16 1446.66   49.04
   1 -10 -16 1295.08   37.63
  -9  -1  16 1317.61   45.76
   1 -10 -16 1281.19   44.63
  -1  10  16 1311.41   48.72
  -9  -1  16 1411.65   46.10
   9   1 -16 1280.13   44.04
  -9  -1  16 1311.55   43.14
  -9  -1  19  186.14   16.90
  -1  10  19  135.53   17.40
  -9  -1  19  172.88   15.75
   8   2  21   32.59    9.83
   2 -10  21   56.15   10.80
   2 -10  21   53.28   12.07
  -2  10 -21   46.96   11.71
  -2  10 -18  166.21   15.37
 -10   8  18  148.23   14.95
   8   2  18  148.80   15.99
   8   2  18  158.90   14.21
  10  -8 -18  166.36   17.02
   2 -10  18  130.85   13.58
   2 -10  18  152.06   14.23
  -8  -2 -18  189.55   17.25
  10  -8 -15   72.89   12.16
  -2  10 -15   40.14    9.95
 -10   8  15   70.20   11.26
  -2  10 -15   68.47   13.33
   2 -10  15   69.94   11.46
   2 -10  15   59.55   10.22
  -8  -2 -15   53.63   11.23
   8   2  15   49.16   10.37
   8   2  12  130.46   15.35
  10  -8 -12  113.47   12.91
  -2  10 -12  112.94   12.44
  -2  10 -12  136.53   15.53
   2 -10  12  112.79    8.25
  -8  -2 -12  113.26   12.68
 -10   8  12  109.37   11.89
   2 -10  12  107.51   13.32
   2 -10  12  128.23   11.78
   8   2   9  499.69   27.36
  -8  -2  -9  615.56   26.54
  -2  10  -9  565.12   24.92
 -10   8   9  549.44   19.87
   2 -10   9  541.46   17.52
  -2  10  -9  579.24   27.14
  -8  -2  -9  558.80   18.72
 -10   8   9  512.95   23.04
   2 -10   9  534.13   22.21
   2 -10   9  562.51   27.32
   8   2   6   11.43    8.72
  -8  -2  -6   11.07    4.32
 -10   8   6   14.70    4.47
  -2  10  -6   -1.25    7.60
   2 -10   6    9.55    3.69
 -10   8   6   12.59    4.67
  -8  -2  -6   11.70    7.33
 -10   8   6   18.81    5.31
   2 -10   6   14.83    8.83
 -10   8   6   19.76    7.16
  -8  -2  -3  370.46   12.69
  -2  10  -3  407.55   20.60
 -10   8   3  373.70   16.91
 -10   8   3  349.16   14.66
  -8  -2  -3  374.51   19.71
 -10   8   3  405.12   14.17
   2 -10   3  369.78   12.20
 -10   8   3  367.79   18.35
   8   2   3  382.65   20.91
   2 -10   0  312.75   20.69
  -8  -2   0  261.68   15.92
  -2  10   0  232.52   15.93
  -8  -2   0  260.26   12.20
 -10   8   0  285.68   13.12
   2 -10   0  274.63   10.00
 -10   8   0  277.39   11.26
  -2  10   0  258.05   15.86
   8   2   0  255.21   16.15
 -10   8   0  257.96   15.15
  -8  -2   0  290.32   14.00
  -2  10   3   33.99    8.56
  -8  -2   3   19.45    5.90
  -2  10   3   19.06    7.24
 -10   8  -3   32.48    8.18
   8   2  -3   28.66    7.23
   2 -10  -3   45.50   10.53
  -8  -2   3   22.99    7.61
 -10   8  -3   29.88    4.83
   2 -10  -3   28.38    4.49
 -10   8  -6   79.03   10.50
  -2  10   6   85.67   11.06
  -8  -2   6   61.06    7.55
 -10   8  -6   80.74    6.86
   8   2  -6   64.15    8.08
   2 -10  -6   73.56   11.86
  -8  -2   6   75.40    9.96
  -2  10   9  390.60   21.76
  -8  -2   9  385.52   20.57
 -10   8  -9  405.01   16.33
  -8  -2   9  398.00   18.05
   8   2  -9  418.58   17.01
   2 -10  -9  384.50   22.49
 -10   8  -9  412.60   22.39
 -10   8 -12   15.31    9.13
   2 -10 -12    2.71    8.57
  -8  -2  12   11.85    6.91
  -8  -2  12    6.11    8.08
   8   2 -12   13.00    5.66
   2 -10 -12    7.26    5.48
  -2  10  12    1.42    8.70
 -10   8 -15   92.70   13.69
   2 -10 -15   90.02   12.30
  -8  -2  15   70.58   10.61
  -2  10  15   56.69   11.68
   8   2 -15   88.98    9.23
   2 -10 -15   79.30    8.96
  -8  -2  15   76.94   11.67
 -10   8 -18  167.43   17.30
   2 -10 -18  156.78   12.18
   2 -10 -18  134.53   14.05
   8   2 -18  179.29   14.94
  -8  -2  18  130.11   14.78
  -2  10  18  146.57   17.01
  -8  -2  18  158.14   14.66
   2 -10 -21   25.62    9.52
   3 -10  22  643.60   29.00
   3 -10  19  128.05   13.21
   7   3  19  137.11   13.42
 -10   7  19  118.47   13.54
  -3  10 -19  113.41   13.87
  10  -7 -19  144.78   16.21
   3 -10  19  113.55   12.58
  -3  10 -16  813.01   35.77
  10  -7 -16  897.42   35.71
 -10   7  16  916.50   34.32
  -3  10 -16  863.57   33.94
   3 -10  16  832.10   31.18
   3 -10  16  890.51   33.48
  -3  10 -13   59.10   10.41
   3 -10  13   65.22    9.55
   3 -10  13   64.08   11.10
  -3  10 -13   58.40   11.56
 -10   7  13   61.03   10.05
  10  -7 -13   59.23   10.57
 -10   7  10  332.96   17.94
  -3  10 -10  326.14   19.90
 -10   7  10  309.91   12.16
   3 -10  10  362.35   20.50
   3 -10  10  331.82   12.56
  -7  -3 -10  317.22   12.57
   3 -10  10  332.16   16.11
 -10   7  10  317.98   15.41
   3 -10  10  288.07   11.05
  -7  -3  -7  333.97   11.50
   3 -10   7  325.95   10.09
   3 -10   7  338.93   20.69
 -10   7   7  333.14   11.12
 -10   7   7  325.73   17.46
   3 -10   7  315.16   15.25
  -3  10  -7  347.01   19.69
 -10   7   7  335.07   14.82
 -10   7   7  345.04   14.69
  -3  10  -4 2928.64   69.13
  -7  -3  -4 2903.37   65.47
  -3  10  -4 3004.85   78.11
 -10   7   4 2829.19   75.95
 -10   7   4 2945.09   68.33
  -3  10  -4 2981.43   77.93
   7   3   4 2896.06   79.21
 -10   7   4 2870.01   71.05
  -3  10  -1   42.59    5.23
  -7  -3  -1   33.75    6.23
   7   3   1   41.01    8.11
  -3  10  -1   38.21    7.86
 -10   7   1   47.03    5.74
 -10   7   1   36.65    5.72
  -3  10  -1   41.62    7.83
  -7  -3  -1   42.20    6.11
   3 -10   1   34.82    9.36
  -7  -3   2 1317.77   35.94
  -3  10   2 1310.30   39.85
   3 -10  -2 1234.76   45.53
  -3  10   2 1298.61   41.80
  -7  -3   2 1252.56   34.53
 -10   7  -2 1265.41   35.21
   3 -10  -2 1256.50   35.39
   7   3  -2 1282.43   40.47
   7   3  -2 1356.15   39.83
   7   3  -5  309.21   15.09
   3 -10  -5  303.13   13.81
  -3  10   5  318.35   17.83
  -3  10   5  334.91   16.15
  -7  -3   5  285.21   13.47
   7   3  -5  300.84   15.45
   3 -10  -5  288.52   19.75
 -10   7  -5  329.56   14.14
 -10   7  -8   98.64    8.60
   3 -10  -8   85.25   11.58
  -7  -3   8  105.42    8.78
   7   3  -8   90.49    8.53
   3 -10  -8   98.83    8.95
 -10   7  -8  119.97   13.01
  -3  10   8  106.28   11.75
   7   3  -8   96.38    8.25
   3 -10 -11  190.09   15.73
  -7  -3  11  194.06   12.63
 -10   7 -11  240.10   13.27
  -3  10  11  234.74   16.55
   3 -10 -11  206.32   12.27
   7   3 -11  168.60    9.64
   7   3 -11  204.83   10.34
   7   3 -11  214.78   10.70
 -10   7 -11  178.46   15.43
   3 -10 -11  216.17   12.02
 -10   7 -14 1868.43   57.88
   3 -10 -14 1982.29   56.80
  -7  -3  14 1853.12   51.92
  -3  10  14 1840.56   57.36
   7   3 -14 1739.40   44.25
   3 -10 -14 1857.41   50.73
   7   3 -14 1827.42   47.62
  -7  -3  14 1801.19   55.51
 -10   7 -17  114.88   14.82
  -7  -3  17  111.29   13.86
  -3  10  17  115.33   14.68
   3 -10 -17  118.63   13.00
   3 -10 -17  112.87   11.28
 -10   7 -20  390.45   24.67
   3 -10 -20  398.86   20.79
  -7  -3  20  407.61   23.69
  -3  10  20  400.11   24.83
   3 -10 -23  266.33   18.58
   4 -10  23   40.11   11.30
  -6  -4 -20   93.83   13.56
 -10   6  20   89.06   13.79
  10  -6 -20   85.35   12.88
   4 -10  20   77.53   11.20
   4 -10  20   70.38   11.40
  -4  10 -17  347.63   22.82
   4 -10  17  361.89   19.06
 -10   6  17  412.30   22.07
  -6  -4 -17  394.40   22.84
   4 -10  17  374.62   20.70
  -4  10 -17  397.58   22.08
  10  -6 -17  365.31   22.30
   4 -10  14  199.01   13.18
 -10   6  14  187.88   11.71
   4 -10  14  188.45   15.42
  10  -6 -14  194.58   15.67
  -6  -4 -14  210.72   16.58
 -10   6  14  207.12   15.43
  -4  10 -14  186.71   16.88
   4 -10  11 1196.04   29.86
  -6  -4 -11 1201.25   40.43
  10  -6 -11 1194.87   40.90
 -10   6  11 1234.80   33.46
   4 -10  11 1177.88   35.36
  -4  10 -11 1213.79   42.25
   4 -10  11 1119.05   29.00
 -10   6  11 1186.53   36.90
   4 -10  11 1142.72   41.10
 -10   6  11 1250.86   39.77
   6   4   8   33.50    9.07
  -4  10  -8   44.11    8.78
  -6  -4  -8   46.57    8.65
  -4  10  -8   46.19    9.82
 -10   6   8   51.77    7.43
   4 -10   8   43.71    9.59
 -10   6   8   67.98    9.74
   4 -10   8   55.13    6.86
 -10   6   8   54.90    5.75
  -4  10  -8   40.45    6.68
  -6  -4  -8   51.18    4.03
 -10   6   5   55.64    4.68
   4 -10   5   54.35    6.23
 -10   6   5   42.09    7.96
   4 -10   5   59.65   10.82
 -10   6   5   52.27    4.09
  -4  10  -5   52.50    8.75
   6   4   5   38.84    8.20
  -4  10  -5   50.02    3.83
  -6  -4  -5   52.57    8.51
  -4  10  -5   49.09    9.08
 -10   6   5   51.16    6.91
  -4  10  -5   50.14    6.51
  -6  -4  -2   97.67   10.49
 -10   6   2  104.92    4.56
 -10   6   2   97.81    8.17
  -4  10  -2   90.09   10.13
 -10   6   2   98.97    6.32
   6   4   2  101.04   10.60
  -4  10  -2  109.47   10.76
 -10   6   2   97.46    4.73
 -10   6   2   80.53    9.11
  -6  -4  -2   95.16    7.10
  -4  10  -2   99.04    4.14
  -4  10  -2   89.54    7.60
   6   4  -1  554.71   22.63
 -10   6  -1  580.80   20.39
  -4  10   1  592.04   24.34
  -6  -4   1  579.73   19.68
  -4  10   1  536.07   18.68
  -4  10   1  562.53   22.42
   4 -10  -1  532.61   18.04
 -10   6  -1  550.44   14.21
 -10   6  -1  574.92   14.45
  -6  -4   1  566.17   23.36
   4 -10  -1  595.52   27.90
  -6  -4   1  532.70   17.99
   6   4  -4  254.94   13.82
   4 -10  -4  263.44   11.85
  -4  10   4  263.40   15.86
 -10   6  -4  253.92   12.92
  -4  10   4  247.16   13.78
  -6  -4   4  258.57   15.25
   4 -10  -4  256.66   18.13
   4 -10  -4  256.18   14.06
  -6  -4   4  269.96   11.70
   4 -10  -7  317.18   19.60
   6   4  -7  281.61   14.08
  10  -6   7  312.37   18.98
   6   4  -7  296.05   14.29
   4 -10  -7  303.07   12.95
  -4  10   7  289.36   17.11
  -4  10   7  252.20   13.21
 -10   6  -7  265.36   13.78
  -6  -4   7  272.45   12.71
   4 -10  -7  257.40   13.53
  -6  -4   7  290.66   16.44
   6   4 -10   28.78    5.49
  -6  -4  10   40.34    6.58
   4 -10 -10   27.76    6.84
  -4  10  10   37.69    8.50
   6   4 -10   32.05    6.14
  -6  -4  10   33.03    8.28
   4 -10 -10   23.37    5.83
 -10   6 -10   33.52    6.79
   4 -10 -10   27.82    9.08
   4 -10 -10   30.97    6.53
   4 -10 -13    1.80    6.36
   6   4 -13    5.95    4.98
  -4  10  13    3.79    7.17
  -6  -4  13    7.04    7.75
  -6  -4  13    8.99    6.85
 -10   6 -13   -1.90    6.60
  -6  -4  13    3.78    8.32
  10  -6  13    7.01    8.98
   4 -10 -13    3.83    8.06
   4 -10 -16   35.51    9.99
  -6  -4  16   35.04   10.28
 -10   6 -16   58.06   12.15
 -10   6 -16   64.08    9.79
  10  -6  16   63.06   12.06
   6   4 -16   60.44    7.02
  -4  10  16   53.41   11.47
   4 -10 -16   50.93    9.16
 -10   6 -19  102.51   14.71
   4 -10 -19  118.77   13.15
   4 -10 -19   90.74   12.00
  -6  -4  19  136.14   14.82
  -4  10  19   71.83   13.27
  10  -6  19  121.97   14.86
   4 -10 -22  607.44   28.12
  10  -6  22  608.31   29.23
  -4  10  22  645.39   31.62
   5 -10  24    4.60    9.79
 -10   5  21  202.46   17.98
   5 -10  21  225.05   16.43
  -5  -5 -21  244.40   19.22
  -5  -5 -18 1412.59   48.79
  -5  10 -18 1445.59   50.94
  10  -5 -18 1445.50   48.70
   5 -10  18 1464.55   46.54
 -10   5  18 1405.75   47.56
   5 -10  18 1419.95   43.64
 -10   5  18 1453.50   43.72
  -5  10 -15   82.62   12.39
  -5  -5 -15   68.10   11.38
 -10   5  15   88.50   11.78
   5 -10  15   53.63    8.54
 -10   5  15   68.70    9.06
  10  -5 -15   84.62   12.21
   5 -10  15   75.80   11.36
   5 -10  12  125.25   13.28
  10  -5 -12  115.34   12.18
  -5  10 -12  132.72   12.93
   5   5  12  136.51   14.85
  -5  10 -12  147.13   14.58
 -10   5  12  144.38   12.49
  -5  -5 -12  153.48   13.59
   5 -10  12  139.80   10.35
 -10   5  12  146.43   10.36
   5 -10   9   64.68    6.92
 -10   5   9   47.51    6.29
  -5  10  -9   54.39    9.88
  -5  -5  -9   59.67    9.10
 -10   5   9   44.59    7.96
  -5  -5  -9   45.37    3.35
   5   5   9   38.31    9.82
  -5  10  -9   50.57    8.62
 -10   5   9   63.12    9.37
   5 -10   9   34.08    9.06
  -5  -5  -6   52.83    8.55
 -10   5   6   55.79    8.76
  -5  10  -6   64.41    9.11
   5   5   6   58.52    9.62
  -5  10  -6   49.52    8.78
 -10   5   6   46.36    7.54
   5 -10   6   62.52    5.97
 -10   5   6   48.61    5.55
   5 -10   6   60.75   10.48
  -5  10  -3   29.68    6.19
  -5  10  -3   25.60    7.07
 -10   5   3   26.14    4.11
 -10   5   3   22.37    3.13
   5   5   3   26.53    7.87
   5 -10   3   26.39    4.31
 -10   5   3   22.18    4.11
  -5  10  -3   26.29    7.40
  -5  -5  -3   27.14    7.45
 -10   5   3   38.34    6.78
 -10   5   3   24.07    7.24
  -5  -5  -3   24.93    4.27
  -5  10  -3   18.45    3.78
 -10   5   0 2555.93   59.15
   5 -10   0 2527.66   59.17
  -5  -5   0 2489.07   67.18
   5 -10   0 2476.34   73.22
  10  -5   0 2519.69   68.92
 -10   5   0 2533.27   62.55
   5   5   0 2498.52   67.50
  -5  10   0 2643.00   68.65
  -5  10   0 2465.78   62.64
  -5  10   0 2508.76   66.01
  -5  10   0 2575.38   58.90
  -5  -5   0 2513.47   59.17
  10  -5   0 2456.27   72.11
 -10   5   0 2587.15   65.07
   5 -10  -3  245.41   17.72
  10  -5   3  235.70   15.79
  -5  -5   3  246.00   14.32
  -5  -5   3  240.99    9.88
  -5  10   3  243.40    9.65
 -10   5  -3  219.89   13.11
  -5  10   3  271.90   15.47
   5   5  -3  265.90   14.36
  -5  10   3  232.34   12.01
   5 -10  -3  264.50   13.88
 -10   5  -3  225.59    9.69
   5 -10  -3  239.02    9.93
 -10   5  -3  239.76   13.33
  -5  10   3  241.41   13.05
  -5  -5   6  122.15   11.23
   5   5  -6  144.31   10.60
  -5  10   6  132.49   11.54
 -10   5  -6  134.51   11.57
  -5  10   6  133.57    9.39
   5 -10  -6  139.32    8.01
   5 -10  -6  125.62    9.51
  -5  -5   6  140.34    8.06
  -5  10   6  143.28    7.85
  10  -5   6  152.40   13.67
   5 -10  -6  143.19   13.79
 -10   5  -6  124.55   10.01
 -10   5  -9  145.89   11.34
  -5  -5   9  135.69   11.91
  -5  10   9  150.41   12.88
   5   5  -9  137.90   10.32
  -5  -5   9  127.99    8.91
   5 -10  -9  156.93    9.42
   5 -10  -9  131.09   13.71
  -5  10  12  182.58   14.36
   5   5 -12  161.51   10.92
  10  -5  12  174.81   15.90
   5   5 -12  204.39    9.66
  -5  -5  12  218.51   14.94
   5 -10 -12  173.07   15.07
   5 -10 -12  156.30   12.49
   5 -10 -12  210.72   11.57
 -10   5 -12  163.26   12.68
   5 -10 -15   43.43    8.99
   5   5 -15   41.83    6.89
  -5  10  15   40.86   10.07
  -5  -5  15   25.02    9.40
   5 -10 -15   48.89   10.25
  10  -5  15   33.94    9.85
 -10   5 -15   42.99    9.35
  -5  10  18 2126.93   63.34
   5 -10 -18 2094.09   61.24
 -10   5 -18 2139.51   62.48
  -5  -5  18 2080.68   63.59
  10  -5  18 2136.45   65.39
   5   5 -18 2122.64   55.22
   5 -10 -18 2118.45   61.58
   5 -10 -21  155.36   15.78
  -5  -5  21  167.60   16.45
 -10   5 -21  186.43   18.64
  10  -5  21  179.48   17.06
  -5  10  21  194.29   17.48
  10  -4 -22    4.61    9.91
 -10   4  22   -1.18    9.27
   6 -10  22    2.02    8.42
 -10   4  19  256.04   16.95
   6 -10  19  252.15   15.61
  -4  -6 -19  248.33   18.82
  -6  10 -19  227.99   19.46
  10  -4 -19  267.08   19.00
   6 -10  16   59.10    8.94
  10  -4 -16   43.62   10.15
   6 -10  16   45.53   10.36
 -10   4  16   56.75    9.33
  -4  -6 -16   46.47   10.21
  -6  10 -16   40.59   11.51
  -4  -6 -13 1430.26   35.82
   6 -10  13 1470.93   48.03
  -6  10 -13 1401.05   48.25
 -10   4  13 1462.70   42.17
   6 -10  13 1378.39   39.69
   4   6  13 1341.01   49.85
  -4  -6 -13 1482.03   46.41
  10  -4 -13 1530.48   46.94
  10  -4 -10  410.30   20.46
 -10   4  10  406.77   19.51
   6 -10  10  436.56   23.14
   4   6  10  443.03   23.79
  -4  -6 -10  360.34   10.21
  -6  10 -10  422.61   22.15
  10  -4 -10  449.68   22.85
  -4  -6 -10  447.08   20.77
  -6  10 -10  412.42   20.61
   6 -10  10  428.32   15.51
 -10   4  10  443.71   17.49
  -6  10  -7  101.72   10.55
   4   6   7   95.36   11.90
 -10   4   7   93.90    8.83
  -6  10  -7  102.42   11.24
 -10   4   7   94.02    7.87
   6 -10   7   85.40    6.29
 -10   4   7   83.34    9.45
  10  -4  -7   66.80   10.74
  -4  -6  -7   93.80    9.99
   6 -10   7   89.51   12.26
  10  -4  -4   44.29    9.76
  -6  10  -4   36.99    7.60
  -6  10  -4   44.26    8.01
   4   6   4   48.89    8.88
 -10   4   4   45.08    7.33
  -4  -6  -4   54.19    7.95
   6 -10   4   46.63    4.13
  -4  -6  -4   39.16    3.63
 -10   4   1  450.42   18.99
  10  -4  -1  400.63   22.78
   6 -10   1  405.52   11.56
  10  -4  -1  402.10   19.97
   6 -10   1  441.63   24.05
 -10   4   1  440.43   14.36
   4   6   1  454.26   20.86
  -6  10  -1  456.27   20.37
  -4  -6  -1  422.78   11.67
  -6  10  -1  447.57   19.27
  -6  10  -1  418.50   14.98
  -4  -6  -1  458.66   19.48
   6 -10   1  441.41   11.95
  10  -4   2   28.20    7.94
   6 -10  -2   28.07    8.80
   6 -10  -2   26.30    3.17
 -10   4  -2   26.00    5.05
   4   6  -2   25.02    6.78
 -10   4  -2   25.05    5.73
  -6  10   2   21.83    6.97
 -10   4  -2   22.35    5.78
  -4  -6   2   33.89    6.97
  10  -4   2   33.69    9.01
  -6  10   2   19.46    5.79
  -6  10   2   15.08    4.21
  -4  -6   2   26.61    3.25
   6 -10  -5 1030.75   38.51
 -10   4  -5  949.57   31.47
  -6  10   5  970.54   32.97
   4   6  -5  959.07   32.30
 -10   4  -5  987.78   32.48
  -6  10   5  978.49   29.55
  -6  10   5  961.96   27.95
 -10   4  -5  995.83   28.27
  10  -4   5  955.41   35.73
   6 -10  -5 1037.12   25.57
  -4  -6   5  972.31   32.64
 -10   4  -8 1948.44   55.14
  -6  10   8 2005.16   55.89
   4   6  -8 2005.75   54.04
  10  -4   8 2038.21   60.31
   6 -10  -8 2020.02   60.95
  -6  10   8 2005.90   49.32
   6 -10  -8 1989.25   48.25
  -6  10   8 1891.58   50.48
  -4  -6   8 1955.37   55.30
  10  -4   8 1981.80   59.85
   6 -10 -11  129.69   13.64
  10  -4  11  115.31   12.53
   4   6 -11  108.71    9.79
   6 -10 -11  102.17    7.95
 -10   4 -11  119.67   11.05
   6 -10 -11   93.58   10.69
  -6  10  11  105.34   11.10
  -4  -6  11   99.72   10.54
  -6  10  11   97.69    8.89
   4   6 -14   -5.76    6.44
  -6  10  14    1.12    7.17
   4   6 -14    1.52    9.37
 -10   4 -14   -9.05    7.63
   6 -10 -14    4.51    7.71
  10  -4  14   11.97    9.59
   6 -10 -14   -2.62    9.20
   4   6 -17  530.72   27.30
 -10   4 -17  470.64   24.01
  10  -4  17  498.06   26.71
   6 -10 -17  454.05   23.27
   6 -10 -17  467.34   23.82
   4   6 -17  493.09   20.48
  -6  10  17  462.80   23.35
 -10   4 -20   23.63   10.26
   6 -10 -20   24.53    9.88
  -6  10  20   25.07   10.40
   4   6 -20   27.52    7.66
   4   6 -20   21.29   12.02
  10  -4  20   35.03   11.63
   4   6 -23  265.63   21.27
  10  -4  23  285.68   21.05
 -10   3  23   31.21   10.46
   7 -10  20   58.55    9.75
 -10   3  20   74.97   11.97
 -10   3  20   47.07   11.36
  10  -3 -20   82.76   13.76
  -7  10 -20   68.09   13.83
  10  -3 -17  116.01   13.00
  -3  -7 -17  126.37    9.22
  -7  10 -17  134.19   15.39
 -10   3  17  158.98   14.93
 -10   3  17  119.10   12.62
   7 -10  17  138.91   11.17
  -3  -7 -17  158.21   14.83
   3   7  17  163.55   18.22
  10  -3 -14  651.19   27.15
  -3  -7 -14  683.87   27.82
  -3  -7 -14  616.16   18.42
 -10   3  14  611.10   26.31
  -7  10 -14  633.43   29.40
 -10   3  14  617.45   24.80
  10  -3 -14  616.00   26.87
   7 -10  14  583.52   20.71
  10  -3 -11    7.65    8.17
 -10   3  11   13.07    7.45
 -10   3  11   19.34    6.88
  10  -3 -11    2.16    6.93
  -3  -7 -11   13.59    2.66
   3   7  11    6.08    8.71
  -7  10 -11   18.55    8.75
   7 -10  11    1.42    8.44
 -10   3  11   15.21    8.19
  -3  -7 -11   21.11    7.22
   7 -10  11   10.72    4.48
  -3  -7  -8   46.23    3.85
 -10   3   8   58.83    8.74
  -7  10  -8   44.69    8.80
   3   7   8   41.00    9.89
 -10   3   8   50.15    8.43
   7 -10   8   46.09    3.79
 -10   3   8   42.45    6.91
  10  -3  -8   59.42   10.56
   7 -10   8   42.62   10.69
  -7  10  -8   44.25    9.79
  -3  -7  -8   39.61    8.19
  -7  10  -5   43.96    8.07
   3   7   5   45.77    8.79
 -10   3   5   35.13    7.69
  -7  10  -5   45.28    8.58
  10  -3  -5   43.79    7.92
   7 -10   5   33.17    9.71
 -10   3   5   48.23    8.27
  -3  -7  -5   43.91    7.53
  10  -3  -5   44.98   10.03
  10  -3  -2   85.05   12.07
 -10   3   2   88.01    9.75
  -7  10  -2   78.42    9.18
   3   7   2   76.58    9.97
  -7  10  -2  121.92   10.59
  -7  10  -2   96.62    7.97
  -3  -7  -2   98.34    9.28
 -10   3   2  104.45   10.10
  10  -3  -2   93.53   10.10
 -10   3  -1  101.70    7.24
  10  -3   1   91.82   10.56
   7 -10  -1  121.39   13.37
  -3  -7   1   97.91    9.03
   3   7  -1   79.31    9.38
  -7  10   1   79.93    9.23
  -7  10   1   90.39    9.08
  -7  10   1  100.90    7.80
 -10   3  -1  101.65    8.00
  10  -3   1   84.34   12.07
 -10   3  -1   94.64    9.73
  10  -3   4 1769.12   55.10
 -10   3  -4 1872.17   48.12
 -10   3  -4 1777.95   48.69
  -7  10   4 1872.21   52.00
   3   7  -4 1874.90   52.93
 -10   3  -4 1876.32   52.86
  -7  10   4 1830.92   48.51
  -7  10   4 1872.35   48.25
  -3  -7   4 1917.25   51.60
   7 -10  -4 1884.50   59.47
  10  -3   7   37.16    9.23
   7 -10  -7   26.54    9.48
  -7  10   7   42.40    6.46
  -3  -7   7   43.97    7.63
   7 -10  -7   34.94    2.62
   3   7  -7   44.01    7.92
  -7  10   7   47.91    8.20
   3   7  -7   44.93   10.18
  -7  10   7   33.94    5.04
 -10   3  -7   42.57    8.49
  10  -3   7   50.78   10.88
 -10   3  -7   29.75    6.27
  -7  10  10   32.23    7.91
   3   7 -10   48.13    8.20
 -10   3 -10   57.40    9.19
   7 -10 -10   31.94    4.56
  -7  10  10   41.49    7.27
  -3  -7  10   38.33    8.35
   7 -10 -10   40.04    9.81
  10  -3  10   30.11    9.84
  10  -3  10   48.44   10.33
   7 -10 -13    9.71    8.82
  -7  10  13    4.33    6.28
   7 -10 -13   11.94    7.65
   3   7 -13   13.00    6.89
  -7  10  13    9.03    6.58
  10  -3  13    9.99    8.54
   3   7 -13    7.69    9.07
  -3  -7  13    8.72    7.98
  -3  -7  13    1.01    7.14
 -10   3 -13    3.51    7.44
   3   7 -16  306.07   21.82
  -3  -7  16  314.73   19.76
  10  -3  16  278.88   20.79
  -7  10  16  333.67   18.24
   3   7 -16  296.89   16.62
   7 -10 -16  297.65   19.13
 -10   3 -16  296.32   19.09
   3   7 -19   35.20   12.37
   3   7 -19   29.90    8.62
  10  -3  19   39.42   12.36
  -3  -7  19   11.48    9.63
   7 -10 -19   26.68   10.42
 -10   3 -19   25.35   10.40
   3   7 -22  759.87   35.29
  10  -3  22  731.32   33.45
   3   7 -22  700.55   27.61
  10  -2 -21   16.25   11.03
 -10   2  21    6.64   10.61
  10  -2 -18    1.24    8.74
   2   8  18    5.74   12.17
  -2  -8 -18   11.74    9.00
  10  -2 -18    5.52    8.23
  -8  10 -18    6.35   10.34
 -10   2  18   25.27    9.57
 -10   2  18    5.19    8.99
  10  -2 -15  961.65   35.26
   2   8  15  989.65   41.62
  -2  -8 -15 1014.18   27.88
  -2  -8 -15 1054.48   36.99
  -8  10 -15 1088.73   40.63
   8 -10  15  995.28   28.70
 -10   2  15 1012.92   36.45
 -10   2  15 1081.77   36.07
  10  -2 -15  998.87   36.53
 -10   2  12   25.23    8.42
 -10   2  12   19.50    7.32
   8 -10  12   10.53    3.64
  -2  -8 -12   22.19    7.57
  -8  10 -12   16.71    9.07
  10  -2 -12   12.53    7.97
  -2  -8 -12   24.04    3.71
  10  -2 -12   29.60    9.21
 -10   2  12   13.05    8.39
  -8  10  -9 1003.94   37.38
 -10   2   9 1071.31   35.53
 -10   2   9  944.10   35.37
 -10   2   9 1062.72   33.84
  10  -2  -9 1025.28   38.67
  -2  -8  -9 1062.61   34.44
  -2  -8  -6  720.72   25.66
  -8  10  -6  696.22   27.02
  -8  10  -6  684.20   27.95
  10  -2  -6  742.95   26.59
  10  -2  -6  695.59   30.77
   2   8   6  670.95   29.23
 -10   2   6  673.65   26.61
 -10   2   6  684.68   27.40
   2   8   3    9.69    6.60
  -8  10  -3    6.62    6.90
  10  -2  -3   18.01    7.38
 -10   2   3    6.95    6.17
  -2  -8  -3   16.97    5.79
  10  -2  -3   14.88    8.62
 -10   2   3   14.50    6.44
  -8  10  -3   11.77    6.48
 -10   2   0  179.60   13.06
   8 -10   0  165.71   16.24
  -8  10   0  181.65   12.19
  -8  10   0  179.45   11.06
  -8  10   0  183.43   12.39
   2   8   0  195.76   14.24
  10  -2   0  157.67   15.45
  10  -2   0  209.23   14.67
  -2  -8   0  186.91   11.84
  -8  10   3 1062.42   31.24
  -8  10   3  990.62   30.99
  -8  10   3 1032.22   32.99
   2   8  -3  964.25   34.66
  -2  -8   3 1068.82   32.43
   8 -10  -3 1057.54   41.15
  10  -2   3 1006.13   36.55
 -10   2  -3  991.26   34.69
   2   8  -6  164.64   15.04
  -8  10   6  151.90    8.95
  -8  10   6  171.01   11.19
 -10   2  -6  129.60   12.11
   2   8  -6  162.18   12.73
  -8  10   6  159.95   11.83
  -2  -8   6  160.15   11.28
  10  -2   6  153.96   14.98
  10  -2   6  155.56   14.72
   2   8  -9  375.37   22.33
  10  -2   9  396.26   23.11
 -10   2  -9  391.63   20.44
  -2  -8   9  382.55   17.85
  -8  10   9  385.02   17.44
  10  -2   9  388.17   21.87
   2   8  -9  368.67   18.86
  -8  10   9  386.19   17.84
  -8  10  12  405.00   18.56
   2   8 -12  390.90   19.85
  -2  -8  12  381.35   20.77
  10  -2  12  443.00   25.09
  10  -2  12  407.18   22.21
  -2  -8  12  381.51   18.60
   8 -10 -12  412.29   21.85
 -10   2 -12  424.17   21.65
  -8  10  12  365.87   18.19
  10  -2  15  164.32   17.30
  -8  10  15  193.37   13.22
   2   8 -15  163.83   13.43
   8 -10 -15  120.28   13.89
   2   8 -15  168.91   17.34
  -8  10  15  161.64   13.11
  10  -2  15  149.37   14.66
 -10   2 -15  151.95   14.69
  -2  -8  15  173.01   14.81
 -10   2 -18  367.73   22.86
   2   8 -18  388.70   25.03
  -8  10  18  399.13   21.60
  10  -2  18  433.70   25.68
  -2  -8  18  431.51   21.67
   8 -10 -18  425.85   24.02
  -2  -8  18  381.26   22.39
   2   8 -18  386.17   20.33
  10  -2  18  399.92   21.60
  -2  -8  21  421.87   21.36
   2   8 -21  428.42   21.94
  10  -1 -22  109.20   13.87
 -10   1  19    5.30    9.93
  10  -1 -19    8.44    9.29
 -10   1  19   -5.30    9.54
   1   9  16    5.39   11.69
  -9  10 -16   -1.56    9.88
 -10   1  16    8.52    8.97
  10  -1 -16   17.52    8.66
 -10   1  16    9.66    9.26
  -1  -9 -16   -1.30    9.83
  10  -1 -16   13.48    9.14
  -1  -9 -13  116.71   13.73
  10  -1 -13  111.94   11.65
   1   9  13  123.87   15.37
 -10   1  13   91.11   11.70
  -1  -9 -13   91.67   11.03
  -9  10 -13  107.38   13.72
  10  -1 -13  107.95   13.14
 -10   1  13  107.95   12.18
 -10   1  13  115.33   12.80
  10  -1 -10   67.78    8.38
 -10   1  10   68.17   10.12
  -1  -9 -10   55.01    9.03
  -9  10 -10   65.24   11.32
 -10   1  10   84.81   11.40
  10  -1 -10   66.17   11.61
 -10   1  10   60.59    9.46
  10  -1  -7   92.53    9.59
  -9  10  -7   97.16   12.12
 -10   1   7  100.79   10.58
  10  -1  -7   90.67   13.43
 -10   1   7  106.56   11.65
  -1  -9  -7  104.13    9.67
  10  -1  -4  646.59   30.82
  -1  -9  -4  701.89   24.19
  -9  10  -4  643.41   26.77
 -10   1   4  672.97   27.30
  10  -1  -4  634.03   25.77
  -9  10  -4  657.38   25.80
   1   9   4  736.61   30.02
 -10   1   4  655.71   25.88
  10  -1  -1   19.10    9.72
 -10   1   1   14.47    7.09
  -1  -9  -1   19.34    6.17
  10  -1  -1   15.35    6.87
  -9  10  -1   17.44    6.58
 -10   1   1   14.71    7.49
   1   9   1   17.14    8.27
  -9  10  -1   16.86    6.40
  -9  10  -1   32.23    7.69
  -1  -9   2   25.24    5.66
  10  -1   2   23.67   10.28
 -10   1  -2   29.19    8.39
  -9  10   2   22.98    6.71
  10  -1   2   23.10    8.44
   1   9  -2   27.83    8.37
  -9  10   2   35.10    7.21
   1   9  -2   35.13    9.33
  -9  10   2   26.42    6.32
  -1  -9   5   32.23    6.39
  10  -1   5   41.12   10.72
 -10   1  -5   36.03    8.75
  -9  10   5   41.94    7.73
  -9  10   5   37.84    6.36
   1   9  -5   52.37   10.87
   1   9  -5   37.28    8.51
  -9  10   5   45.49    7.44
  10  -1   5   22.97    9.08
   1   9  -8  417.65   20.58
  -9  10   8  383.41   17.00
   1   9  -8  360.86   21.94
  -9  10   8  363.43   17.71
  10  -1   8  341.46   21.52
  -1  -9   8  360.17   16.58
 -10   1  -8  376.11   20.75
  10  -1   8  385.03   23.28
  -1  -9  11   67.37    8.72
   1   9 -11   71.83   12.73
 -10   1 -11   63.09   10.48
  10  -1  11   71.97   11.98
  -1  -9  11   63.72   11.68
  10  -1  11   59.63   12.30
  -9  10  11   76.58    8.92
   1   9 -11   58.66   10.24
  -9  10  11   51.56    8.76
   9 -10 -14  125.50   13.78
  -9  10  14  122.95   12.15
  -1  -9  14  127.30   11.35
 -10   1 -14  117.93   13.10
  10  -1  14  154.57   14.70
  -1  -9  14  133.03   14.09
  -1  -9  14  124.73   13.19
   1   9 -14  148.50   13.61
  10  -1  17   26.38   10.71
  -1  -9  17    1.24    9.07
   1   9 -17    3.55    8.62
 -10   1 -17    7.40    9.77
   1   9 -17   -5.22   10.72
   9 -10 -17   19.68   11.03
  10  -1  17   21.85   13.16
  -9  10  17   -1.18    8.52
  -1  -9  17    6.69    9.75
  -1  -9  20   49.42   11.05
  10  -1  20   48.72   11.03
  -9  10  20   38.10   12.27
   1   9 -20   53.27   11.19
   0 -10 -17  135.14   14.87
 -10   0  17  131.82   14.45
  10   0 -17  115.91   13.99
 -10   0  17  100.07   13.22
 -10  10 -17   99.26   15.28
 -10   0  14  263.00   18.01
  10   0 -14  245.89   18.46
   0  10  14  219.26   19.26
 -10  10 -14  248.03   20.02
 -10   0  14  238.83   18.05
   0 -10 -14  232.67   18.82
 -10   0  14  227.00   16.41
 -10   0  11 1468.52   45.37
  10   0 -11 1323.91   47.36
 -10   0  11 1336.76   42.95
 -10  10 -11 1446.03   48.61
   0  10  11 1319.50   48.64
   0 -10 -11 1360.05   41.55
 -10   0  11 1435.53   46.74
   0 -10 -11 1358.57   48.35
   0  10   8   28.23   10.16
  10   0  -8   14.71    6.92
 -10   0   8   10.93    7.37
 -10  10  -8   13.33    8.81
 -10   0   8   10.00    8.32
  10   0  -8   21.73   10.40
   0 -10  -8   15.93    7.06
   0 -10  -8   -7.95    9.96
   0 -10  -5  174.89   16.89
   0 -10  -5  179.79   11.13
  10   0  -5  158.51   16.33
 -10  10  -5  161.85   12.75
 -10   0   5  160.85   13.69
 -10   0   5  157.05   12.42
  10   0  -5  131.41   12.04
 -10  10  -5  171.17   14.59
   0  10   2   60.78   11.00
 -10  10  -2   71.38    9.40
  10   0  -2   54.17   12.41
 -10   0   2   73.91   10.60
 -10  10  -2   62.28    9.72
 -10   0   2   66.72    9.32
   0 -10  -2   66.22    7.36
  10   0  -2   82.20   10.55
   0 -10  -2   39.65   11.95
  10   0   1  519.82   24.94
  10   0   1  544.98   28.97
 -10  10   1  570.34   22.12
   0  10  -1  561.11   25.91
 -10  10   1  544.10   22.16
 -10   0  -1  594.89   23.77
 -10  10   1  626.29   23.83
   0 -10   1  527.32   28.76
   0  10  -1  537.90   25.65
 -10   0  -1  533.45   18.97
   0 -10   1  537.07   19.48
 -10   0  -1  566.61   25.47
   0  10  -4  361.63   21.16
 -10  10   4  330.74   15.13
 -10  10   4  343.94   17.35
  10   0   4  340.57   20.79
 -10   0  -4  333.64   19.74
   0 -10   4  344.49   14.70
   0 -10   4  314.72   22.11
   0  10  -4  369.69   20.46
 -10  10   4  350.45   16.06
   0  10  -7  453.02   23.11
 -10  10   7  479.29   18.86
 -10   0  -7  498.02   24.25
   0  10  -7  464.64   25.19
   0 -10   7  498.64   18.45
  10   0   7  451.12   25.53
   0 -10   7  434.83   25.34
  10   0   7  455.95   25.42
 -10  10   7  459.71   20.86
   0 -10  10  154.28   15.74
  10   0  10  161.34   16.36
  10   0  10  158.59   17.11
   0 -10  10  180.67   14.21
   0  10 -10  143.32   13.61
 -10  10  10  161.39   13.08
   0  10 -10  153.94   15.94
 -10   0 -10  160.54   15.11
   0 -10  10  139.44   10.35
   0 -10  13   59.04    8.15
   0 -10  13   78.09   11.71
   0  10 -13   44.94   11.50
 -10  10  13   46.45    9.66
   0  10 -13   38.56   12.41
 -10   0 -13   57.05   11.28
   0 -10  13   61.10   11.69
  10   0  13   43.89   12.53
  10   0  13   56.07   11.74
  10 -10 -16   50.19   12.50
   0  10 -16   53.85   11.39
 -10  10  16   38.60   10.84
   0 -10  16   35.05    8.23
   0 -10  16   40.31   11.09
   0 -10  16   34.74   10.52
 -10   0 -16   51.68   12.41
  10   0  16   53.13   11.74
 -10  10  19  190.73   16.54
   0 -10  19  189.00   17.26
  10   0  19  219.17   17.34
   0  10 -19  208.99   17.10
   0 -10  19  232.74   17.53
   1 -11  18  122.15   14.59
   1 -11  18  116.74   15.06
  10   1  18  127.26   14.94
 -11  10  15  159.45   15.31
   1 -11  15  164.29   16.82
   1 -11  15  141.55   14.74
  10   1  15  127.31   15.47
  -1  11 -15  167.86   15.99
  10   1  12   81.12   14.79
   1 -11  12   87.44   12.22
  -1  11 -12   81.82   12.82
  -1  11 -12   96.51   14.72
  10   1  12   58.02   12.13
 -11  10  12   90.69   11.93
   1 -11  12   90.90   14.13
 -10  -1 -12   72.48   13.36
  10   1   9  312.93   23.01
 -10  -1  -9  369.13   21.96
  -1  11  -9  362.29   20.92
 -11  10   9  352.52   19.51
  -1  11  -9  422.12   24.40
   1 -11   9  366.73   23.64
   1 -11   9  311.47   18.30
   1 -11   9  355.99   14.63
  10   1   9  353.65   22.89
  10   1   6  102.80   14.37
  10   1   6   92.83   14.39
 -11  10   6   93.81   10.87
  -1  11  -6   85.70   13.02
   1 -11   6   97.15    7.54
 -10  -1  -6   88.87   12.13
  -1  11  -6  134.47   14.32
   1 -11   6   58.44   13.04
  -1  11  -3   56.98   11.28
   1 -11   3   62.19    6.30
 -10  -1  -3   54.46   10.48
 -11  10   3   46.58    7.89
  -1  11  -3   58.38   10.98
 -11  10   3   66.16    8.08
  10   1   3   51.58   10.82
 -11  10   3   66.11    9.63
  -1  11   0   57.70   10.84
 -11  10   0   53.22    7.98
  10   1   0   69.30   11.23
 -10  -1   0   56.06   10.97
  10   1   0   52.89   12.94
 -11  10   0   67.54    9.80
   1 -11   0   41.47    5.85
   1 -11   0   33.56   12.09
 -11  10   0   57.23    9.60
 -10  -1   0   58.40    8.97
   1 -11  -3  143.06   16.86
  10   1  -3  146.48   17.07
 -11  10  -3  162.45   12.26
 -10  -1   3  158.17   14.45
 -10  -1   3  174.41   12.95
 -11  10  -3  182.72   15.01
   1 -11  -3  167.90    9.97
  10   1  -3  168.07   14.19
  -1  11   6   -4.46    9.22
 -10  -1   6    2.83    6.95
   1 -11  -6   -3.19    5.60
 -11  10  -6    5.26    9.40
   1 -11  -6    8.79   11.18
  10   1  -6   -0.97    7.79
 -10  -1   6    5.19    8.18
  10   1  -6    3.46   10.64
  10   1  -9  727.45   33.78
   1 -11  -9  773.37   34.71
  10   1  -9  767.70   26.88
 -11  10  -9  709.47   32.01
  -1  11   9  709.58   33.12
 -10  -1   9  748.14   31.47
 -10  -1   9  727.93   27.94
  -1  11  12   93.49   14.33
 -11  10 -12  100.20   14.85
 -10  -1  12   84.95   11.58
  10   1 -12  113.62   15.23
 -10  -1  12  101.48   13.65
 -10  -1  12   97.17   12.87
   1 -11 -12  112.05   14.67
 -11  10 -15  120.40   16.19
 -10  -1  15  100.23   12.60
 -10  -1  15   96.96   14.23
  10   1 -15   83.16   13.04
   1 -11 -15  102.34   15.06
 -10  -1  18   85.93   12.99
   2 -11  19   45.17   11.17
   2 -11  19   29.65   11.06
   9   2  19   31.08   10.58
   2 -11  16  109.32   14.30
  11  -9 -16  101.69   14.68
  -2  11 -16  104.11   13.47
   2 -11  16  121.27   13.22
  -9  -2 -16  110.69   14.93
  -2  11 -16   91.36   15.77
 -11   9  16   97.63   13.07
   9   2  16   90.43   13.30
   9   2  13  665.21   30.46
   9   2  13  660.19   33.36
  -2  11 -13  696.64   30.46
  -9  -2 -13  660.72   31.04
  -2  11 -13  735.58   33.72
   2 -11  13  717.36   28.07
 -11   9  13  715.62   29.60
   2 -11  13  663.85   31.32
   9   2  10   37.70   11.93
 -11   9  10   51.34   10.00
  -2  11 -10   39.11   10.00
   2 -11  10   51.18   11.88
   2 -11  10   53.76    5.98
   9   2  10   79.11   13.36
  -9  -2 -10   52.55   10.94
   2 -11  10   54.02    9.44
  -2  11 -10   57.02   12.11
  -2  11  -7  387.26   21.36
   2 -11   7  368.71   12.73
  -9  -2  -7  356.54   20.90
   9   2   7  336.76   22.29
 -11   9   7  362.74   19.48
   2 -11   7  394.33   24.10
  -2  11  -7  377.97   22.50
  -9  -2  -4   20.21    8.93
   2 -11   4   20.85    4.04
 -11   9   4   12.88    6.94
  -2  11  -4   19.82    9.04
 -11   9   4    9.32    5.00
   2 -11   4   12.07    9.70
   9   2   4    8.56    9.21
 -11   9   4   15.49    6.58
   2 -11   1   20.50    3.98
 -11   9   1   28.76    7.86
 -11   9   1   11.86    7.58
  -9  -2  -1   30.07    7.55
  -2  11  -1   32.15    9.89
 -11   9   1   16.17    6.10
   2 -11   1   26.74   10.90
   9   2   1   23.92    9.07
  -9  -2  -1   20.88    8.52
   2 -11  -2   58.87    5.44
 -11   9  -2   50.49    9.46
  -2  11   2   46.00    9.69
 -11   9  -2   41.28    7.39
  -9  -2   2   44.88    7.87
   9   2  -2   47.43    9.09
   2 -11  -2   55.55   12.63
  -9  -2   2   50.23    9.65
  -2  11   2   48.70    9.41
  -9  -2   5  495.55   20.45
 -11   9  -5  454.64   23.51
  -2  11   5  467.48   24.75
   9   2  -5  483.88   21.43
  -9  -2   5  488.79   23.85
   2 -11  -5  528.52   28.38
   2 -11  -8  283.77   21.23
 -11   9  -8  313.36   20.47
  -9  -2   8  339.91   20.05
  -9  -2   8  305.44   16.08
   9   2  -8  295.98   15.65
  -2  11   8  314.89   20.49
  -9  -2  11  146.92   12.26
  -2  11  11  128.92   15.44
   2 -11 -11  131.76   16.02
 -11   9 -11  146.40   15.80
  -9  -2  11  105.00   12.81
   9   2 -14   -7.07   10.24
  -9  -2  14   -1.39    9.72
  -9  -2  14   -2.08    7.75
  -2  11  14    1.64   10.43
   2 -11 -14   -2.93   10.53
 -11   9 -14   -4.68   10.95
  -9  -2  14   -4.09    9.63
  -9  -2  17   37.16   11.12
   2 -11 -17   51.96   12.23
   9   2 -17   33.75   11.01
  -9  -2  17   54.67   12.56
   3 -11  20    1.24    9.67
   3 -11  20   -1.25   10.34
   8   3  20    5.80    9.63
   3 -11  17   29.42    9.27
  -3  11 -17   18.96   11.63
   8   3  17   26.52   10.77
  11  -8 -17    3.21   10.53
  -3  11 -17   15.47   10.01
   3 -11  17   17.33   10.06
 -11   8  17    8.09    9.53
   8   3  14    1.70   10.64
  11  -8 -14    1.51    9.51
   3 -11  14    2.80    8.63
   3 -11  14    1.01    7.94
 -11   8  14    7.89    7.24
 -11   8  14   -1.24    8.84
  -3  11 -14   -3.26   10.19
  -3  11 -14   -1.35    8.89
 -11   8  11  184.29   14.67
 -11   8  11  183.80   12.04
   3 -11  11  174.97   16.84
  -3  11 -11  184.78   17.10
   3 -11  11  193.25   13.62
   8   3  11  136.06   16.46
  -3  11 -11  166.91   15.20
  -3  11  -8  215.82   17.24
 -11   8   8  215.78   12.20
   3 -11   8  188.83   17.35
   3 -11   8  217.23   13.35
 -11   8   8  225.67   15.31
  -3  11  -5  712.12   29.91
 -11   8   5  740.43   28.58
   8   3   5  716.29   31.79
 -11   8   5  745.72   25.56
 -11   8   5  698.27   23.29
   3 -11   5  703.21   32.74
 -11   8   2  100.22    7.85
  -3  11  -2   93.87   11.44
  -8  -3  -2  121.44    9.48
 -11   8   2  124.49   11.95
 -11   8   2  109.99   11.02
   8   3   2  118.82   13.30
  -3  11  -2  123.23   12.53
 -11   8   2  111.00    8.45
 -11   8  -1   12.94    5.40
   8   3  -1   18.56    7.82
  -3  11   1   19.86    9.05
  -3  11   1   26.09    8.16
 -11   8  -1   20.88    8.61
  -8  -3   1   15.01    5.75
   3 -11  -1   34.51   11.48
 -11   8  -1   13.55    5.43
   8   3  -1    1.14    7.63
  -3  11   4   11.44    8.64
   8   3  -4    9.31    6.87
  -8  -3   4    4.91    5.44
  -3  11   4   10.03    6.91
 -11   8  -4   14.68    8.31
   3 -11  -4   15.14   10.45
 -11   8  -4   14.83    5.26
   8   3  -4    9.79    7.39
   8   3  -7  798.28   27.61
  -8  -3   7  771.69   26.43
 -11   8  -7  821.84   33.10
   3 -11  -7  745.57   34.05
   8   3  -7  775.09   26.46
  -3  11   7  821.10   32.96
 -11   8  -7  818.29   25.86
  -8  -3  10   89.64    9.93
 -11   8 -10  114.04    9.79
   3 -11 -10  121.79   14.46
 -11   8 -10  118.31   14.21
   8   3 -10  106.14    8.11
  -3  11  10  100.08   13.03
   8   3 -10  122.57    9.53
  -8  -3  13  820.65   29.31
 -11   8 -13  818.35   34.91
  -8  -3  13  777.00   32.79
  -3  11  13  824.87   34.64
   3 -11 -13  810.62   34.10
  -8  -3  16  168.87   16.46
   3 -11 -16  184.89   16.48
  -8  -3  16  185.91   16.67
  -8  -3  16  191.07   14.96
  -3  11  16  204.36   18.81
   3 -11 -16  189.33   13.36
   3 -11 -19   22.68    8.64
   4 -11  21   -4.67    9.87
   7   4  21   -1.08    9.25
  11  -7 -18  119.97   16.00
   4 -11  18  181.52   15.84
  -7  -4 -18  150.02   16.30
 -11   7  18  140.43   15.29
  -4  11 -18  170.22   16.67
   4 -11  18  140.53   14.06
  -4  11 -18  146.84   17.35
  11  -7 -15   92.33   13.54
  -4  11 -15  100.62   12.73
   4 -11  15  109.77   13.56
  -4  11 -15  134.24   16.12
 -11   7  15  126.69   13.43
  -7  -4 -15  104.60   13.68
   4 -11  15  109.95   11.30
   4 -11  12    5.08    6.53
   4 -11  12    2.88    9.50
 -11   7  12   -1.20    8.38
 -11   7  12    0.91    7.02
  -4  11 -12   -7.51    9.92
  -7  -4 -12    5.36    8.46
  -4  11  -9  236.74   17.78
   4 -11   9  229.76   17.95
  -7  -4  -9  233.17   16.79
 -11   7   9  218.03   15.49
 -11   7   9  204.19   13.29
   4 -11   9  234.20   13.08
  -4  11  -6  183.13   14.80
   4 -11   6  176.43   16.52
  -4  11  -6  143.93   13.74
   7   4   6  193.28   16.17
 -11   7   6  167.23   13.48
   4 -11   6  160.94   10.55
 -11   7   6  171.26   11.21
  -7  -4  -6  159.49   13.98
  -7  -4  -3    1.15    7.14
 -11   7   3    7.76    5.55
  -4  11  -3   13.66    8.54
  -7  -4  -3    8.72    5.23
 -11   7   3    9.90    7.16
 -11   7   3    8.31    3.88
   7   4   3   15.02    7.83
  -4  11  -3    1.19    7.17
   7   4   0  311.73   17.69
  -7  -4   0  299.38   17.65
  -4  11   0  319.10   17.48
  -7  -4   0  330.19   13.70
  -4  11   0  294.58   18.27
   4 -11   0  337.80   22.30
   4 -11   0  308.60   13.46
 -11   7   0  332.90   14.92
   7   4  -3  348.13   17.76
   4 -11  -3  326.56   13.80
  -4  11   3  288.92   18.14
 -11   7  -3  348.21   15.20
  -7  -4   3  287.60   13.23
  -7  -4   3  317.83   18.40
   4 -11  -3  343.16   22.41
  -4  11   3  320.76   16.90
   7   4  -6    4.33    5.96
   4 -11  -6   15.80   10.20
  -4  11   6    0.84    5.93
   4 -11  -6    5.30    5.19
  -7  -4   6   -6.93    7.23
  -4  11   6   14.73    8.28
   7   4  -6   -0.85    6.17
  -7  -4   6    2.48    4.89
 -11   7  -6    2.23    5.64
  -4  11   9  311.50   19.14
  -7  -4   9  288.83   17.99
  -7  -4   9  300.19   14.56
 -11   7  -9  311.54   15.72
   7   4  -9  303.93   14.91
   7   4  -9  283.17   14.21
   4 -11  -9  256.91   19.43
  -4  11  12  158.33   14.61
   4 -11 -12  147.01   15.30
  -7  -4  12  154.57   11.88
 -11   7 -12  140.08   11.65
 -11   7 -12  158.96   15.82
   7   4 -12  135.67    9.70
  -7  -4  12  146.05   13.96
  -4  11  15   26.55   10.63
  -7  -4  15   28.23   10.47
   4 -11 -15   24.85    9.89
 -11   7 -15    7.66    9.60
   4 -11 -15   18.20    7.59
  -7  -4  15   22.70    9.14
 -11   7 -15   21.79    8.38
   4 -11 -18  175.61   14.77
  -4  11  18  182.25   17.78
  -7  -4  18  198.53   18.06
   4 -11 -18  215.93   17.06
 -11   7 -18  178.15   18.27
   4 -11 -21    9.50    9.90
   5 -11  19  364.07   19.38
  -6  -5 -19  409.11   24.32
  11  -6 -19  348.51   23.71
   5 -11  19  393.05   22.12
   5 -11  16  207.19   16.95
   5 -11  16  227.86   14.41
  -5  11 -16  181.15   17.68
  11  -6 -16  213.95   17.38
 -11   6  16  185.19   15.94
  -6  -5 -16  187.15   16.74
   5 -11  13   -1.42    8.59
  11  -6 -13   -5.50    9.59
   5 -11  13    7.95    6.48
  -6  -5 -13   -2.64    8.46
  -5  11 -13   -1.51   10.06
 -11   6  13    8.60    8.23
 -11   6  13    3.07    7.14
  -6  -5 -10  228.69   16.21
  -5  11 -10  223.27   17.60
 -11   6  10  210.51   14.14
   6   5  10  227.99   19.05
 -11   6  10  234.84   16.25
  -5  11 -10  248.27   17.00
   5 -11  10  277.35   19.05
   5 -11  10  224.70   12.38
  -6  -5  -7 1272.25   41.85
  -5  11  -7 1260.16   42.65
 -11   6   7 1260.49   38.42
   6   5   7 1172.12   43.57
 -11   6   7 1277.37   41.30
  -5  11  -7 1280.18   42.31
   5 -11   7 1305.07   46.19
   5 -11   7 1223.35   34.65
  -6  -5  -4  587.72   25.09
  -6  -5  -4  573.88   18.26
 -11   6   4  542.30   24.13
  -5  11  -4  563.32   24.66
 -11   6   4  569.08   22.17
   6   5   4  555.20   25.97
  -5  11  -4  537.32   24.60
   5 -11   4  566.60   18.58
   5 -11   4  533.76   28.39
   6   5   1 1196.08   39.76
  -5  11  -1 1191.09   38.33
  -6  -5  -1 1194.11   39.40
 -11   6   1 1184.41   35.98
  -5  11  -1 1232.11   40.45
 -11   6   1 1163.93   39.28
  -6  -5  -1 1168.60   31.32
   5 -11   1 1192.87   31.35
   5 -11   1 1177.87   45.10
   6   5  -2  367.63   18.50
   5 -11  -2  341.43   13.17
  -5  11   2  355.74   19.34
 -11   6  -2  338.13   16.37
   5 -11  -2  342.61   22.47
  -6  -5   2  376.58   13.49
  -6  -5   2  388.21   19.35
  -5  11   2  339.80   17.32
  -6  -5   5   66.55    6.61
  -5  11   5   74.44   10.13
   6   5  -5   69.92    9.23
   5 -11  -5   68.70    6.73
 -11   6  -5   80.82    8.78
   5 -11  -5   95.63   13.01
  -5  11   5   64.13    8.13
  11  -6   5   89.32   11.85
  -6  -5   5   66.50    9.73
  -6  -5   8  135.68   12.78
  -6  -5   8  140.83    9.35
 -11   6  -8  119.28   10.75
  -5  11   8  118.80   12.55
   6   5  -8  115.72   10.19
   5 -11  -8  106.55   13.75
  11  -6   8  139.80   14.20
   6   5  -8  142.97   10.79
 -11   6 -11 1300.58   41.43
   6   5 -11 1357.33   39.24
  -5  11  11 1369.24   44.93
  -6  -5  11 1341.16   44.07
   5 -11 -11 1379.02   47.12
   6   5 -14  142.22   10.53
  -5  11  14  145.59   14.50
  11  -6  14  118.82   14.81
   5 -11 -14  173.41   15.97
  -6  -5  14  144.43   14.88
 -11   6 -14  146.38   13.38
   5 -11 -14  140.56   12.77
  -6  -5  14  137.12   13.83
   5 -11 -17  476.16   24.69
  -6  -5  17  463.27   25.52
 -11   6 -17  476.32   23.93
  -5  11  17  495.10   25.63
   5 -11 -17  446.92   22.64
  11  -6  17  456.85   26.67
   5 -11 -20  222.36   17.54
  -5  11  20  222.43   19.08
  11  -6  20  236.51   19.88
   6 -11  17   58.50    9.40
  -5  -6 -17   81.12   12.69
   6 -11  17   74.29   12.10
  -6  11 -17   83.67   14.48
  11  -5 -17   56.34   11.81
 -11   5  17   88.48   12.94
  11  -5 -14  310.93   20.24
   6 -11  14  346.12   21.48
 -11   5  14  335.67   19.96
  -6  11 -14  286.49   19.52
  -6  11 -14  338.74   22.30
  -5  -6 -14  321.79   19.96
 -11   5  14  362.30   19.74
   6 -11  14  353.21   16.17
   5   6  14  248.43   21.72
  -6  11 -11   82.17   12.78
  -5  -6 -11   73.96   11.01
 -11   5  11   79.89    8.68
   6 -11  11   76.83    8.01
 -11   5  11   75.35   10.14
   6 -11  11   62.27   11.59
   5   6  11   57.60   12.02
  -6  11 -11   63.71   10.90
 -11   5  11   71.42   10.69
  -6  11  -8   98.52   12.00
  -5  -6  -8   99.90   11.27
   6 -11   8   81.21    7.13
 -11   5   8   71.77    7.34
 -11   5   8   83.33    9.59
   6 -11   8   88.13   12.36
  -6  11  -8   99.88   11.72
   5   6   8   94.54   12.88
 -11   5   8   83.28   10.73
  -6  11  -5    4.54    7.17
  -5  -6  -5    6.47    6.42
   6 -11   5   11.22   10.04
 -11   5   5   11.16    6.41
  -6  11  -5   11.15    4.41
  -5  -6  -5   11.32    3.50
 -11   5   5   21.20    8.32
  -6  11  -5    8.04    7.14
   5   6   5   22.54    8.76
   6 -11   5    6.73    3.94
 -11   5   5   13.74    4.93
  11  -5  -2    4.61    8.81
   5   6   2    1.19    7.27
  -6  11  -2    1.12    6.76
  -6  11  -2   -1.01    6.98
   6 -11   2    0.87    3.17
 -11   5   2    4.61    4.08
   6 -11   2    8.47    3.17
  -5  -6  -2    4.15    6.44
 -11   5   2    0.90    6.20
  -5  -6  -2    0.52    2.87
 -11   5   2    6.66    7.28
  -6  11  -2    5.22    3.84
  11  -5   1   16.98   10.04
  11  -5   1    1.20    7.71
   6 -11  -1    2.35    3.01
  -5  -6   1    7.32    3.30
  -6  11   1    2.40    3.78
  -6  11   1    1.09    6.45
   5   6  -1   -1.09    6.51
   6 -11  -1    4.59    3.12
 -11   5  -1   -5.35    6.50
  -5  -6   1    4.09    6.34
   6 -11  -1    3.29    8.38
  -6  11   1   -0.89    6.25
   6 -11  -4  707.83   32.79
  11  -5   4  705.99   30.06
  -6  11   4  729.53   25.35
   6 -11  -4  732.38   20.10
  -5  -6   4  717.04   27.74
 -11   5  -4  732.66   26.65
  -6  11   4  719.92   28.28
   5   6  -4  760.91   27.97
  -5  -6   4  718.73   20.23
  -6  11   4  713.66   21.51
   5   6  -7  187.67   13.12
  -6  11   7  180.60   13.80
   6 -11  -7  192.66   16.90
 -11   5  -7  188.94   13.28
  -6  11   7  170.08    9.59
  -5  -6   7  173.03   13.39
  11  -5   7  152.47   15.27
  -6  11   7  173.46   10.48
   6 -11 -10   70.07   12.02
  -5  -6  10  106.41   11.46
  -6  11  10   89.89   11.65
   5   6 -10   92.50   10.24
 -11   5 -10  104.13   11.24
   5   6 -13   94.73    9.95
  -6  11  13  109.70   12.72
 -11   5 -13  102.78   12.03
   6 -11 -13  112.37   13.90
  -5  -6  13  110.09   13.61
  -5  -6  13  104.75   12.09
   6 -11 -13   82.16   11.46
  11  -5  13   82.51   13.22
   5   6 -16   55.01    8.76
  -6  11  16   40.62   10.47
 -11   5 -16   39.35   10.40
   6 -11 -16   56.98   12.25
  -5  -6  16   51.77   12.09
   6 -11 -16   60.45   10.97
  11  -5  16   47.42   12.10
  -5  -6  16   46.63   10.89
   6 -11 -19   13.22    9.80
  11  -5  19   13.02   11.92
  -6  11  19   -1.40   10.17
 -11   5 -19   -1.35    9.90
  11  -4 -18  411.52   24.30
 -11   4  18  440.78   24.36
  -4  -7 -18  452.50   25.20
 -11   4  15   97.91   11.01
  11  -4 -15   65.77   11.73
   4   7  15   77.37   15.32
  -7  11 -15   86.23   13.88
 -11   4  15   78.20   12.10
  -4  -7 -15   96.68   12.84
 -11   4  15   69.17   12.19
   7 -11  15   88.10   13.45
  -7  11 -12 1035.55   37.26
  -7  11 -12  971.25   38.29
   7 -11  12  955.76   27.45
 -11   4  12  928.66   31.43
   7 -11  12  969.89   38.62
  -4  -7 -12  956.29   35.59
   4   7  12  970.80   40.46
 -11   4  12  987.34   35.35
  11  -4 -12 1025.01   37.98
  11  -4  -9  359.57   22.07
   7 -11   9  396.49   24.11
  -7  11  -9  364.81   21.26
   7 -11   9  385.19   12.69
 -11   4   9  393.35   17.15
  -7  11  -9  391.84   20.73
   4   7   9  443.92   24.54
 -11   4   9  422.23   20.57
  -4  -7  -9  409.76   20.51
  -4  -7  -6  246.88   15.05
  -7  11  -6  244.18   16.20
 -11   4   6  242.53   14.48
   7 -11   6  185.20   17.45
 -11   4   6  215.46   11.58
   4   7   6  207.53   16.17
  -7  11  -6  248.49   15.59
  11  -4  -6  221.31   17.45
  -7  11  -3 1397.57   43.70
 -11   4   3 1463.85   43.14
  -7  11  -3 1332.51   42.63
  11  -4  -3 1343.95   43.33
   4   7   3 1362.47   45.29
  -7  11  -3 1385.85   37.18
  11  -4  -3 1276.22   47.66
  -4  -7  -3 1348.91   42.23
  -7  11   0   26.83    5.34
  -4  -7   0   35.79    8.48
 -11   4   0   20.68    7.57
  -7  11   0   21.50    7.15
  -7  11   0   38.20    8.41
   4   7   0   32.49    8.27
   7 -11   0   13.43    9.45
  11  -4   0   32.96    8.54
  11  -4   0   28.55    9.95
  -7  11   3   69.84    6.94
   4   7  -3   76.68   10.23
  -7  11   3   98.39   10.83
   7 -11  -3   73.04   12.63
  -7  11   3   79.01    8.68
 -11   4  -3   77.72    9.78
  11  -4   3   90.95   11.86
  -4  -7   3   84.28    9.86
  -7  11   6  861.51   30.50
   4   7  -6  773.61   29.38
  -7  11   6  802.27   25.40
  -7  11   6  796.43   25.21
   7 -11  -6  731.37   33.93
 -11   4  -6  868.80   30.27
  11  -4   6  836.84   33.76
  -4  -7   6  758.56   28.84
  11  -4   6  785.83   34.15
  -4  -7   9 1679.31   49.74
   7 -11  -9 1564.31   54.58
  -7  11   9 1609.84   45.17
  11  -4   9 1715.96   54.96
  -7  11   9 1763.81   50.84
   4   7  -9 1705.58   49.16
 -11   4  -9 1659.08   50.02
  11  -4   9 1709.88   55.24
   4   7 -12   85.59   10.21
  -7  11  12  102.22   11.64
  -7  11  12   80.27    9.52
 -11   4 -12   68.62   10.56
   7 -11 -12   98.23   13.81
  -4  -7  12   69.80   10.73
   4   7 -15 1271.62   39.46
 -11   4 -15 1308.07   43.54
  -4  -7  15 1293.79   44.77
  11  -4  15 1207.59   46.52
  -7  11  15 1233.98   41.95
   7 -11 -15 1261.90   44.88
   7 -11 -15 1204.01   42.66
  -4  -7  15 1239.82   41.89
   4   7 -18   -8.78   12.64
 -11   4 -18   -4.14    9.31
  11  -4  18    3.35   11.15
  -4  -7  18   -8.89   10.27
   4   7 -18    2.81    7.80
  -7  11  18   -6.31   10.13
   7 -11 -18   -4.15   10.20
  11  -3 -19  125.48   14.84
 -11   3  19  110.52   13.67
  -3  -8 -19   93.22   13.78
  -8  11 -16  158.96   16.93
 -11   3  16  182.71   16.20
  -3  -8 -16  162.59   15.81
  11  -3 -16  172.50   15.53
 -11   3  16  160.64   13.92
  11  -3 -16  164.18   15.55
 -11   3  16  185.29   15.94
 -11   3  13  116.85   11.73
 -11   3  13  126.95   13.28
 -11   3  13  118.47   13.59
   3   8  13  129.91   16.28
  11  -3 -13  121.77   13.94
  -8  11 -13   90.08   13.72
  -3  -8 -13  100.06   12.26
 -11   3  10   44.11    8.48
  -8  11 -10   52.41   11.44
  -3  -8 -10   43.47    9.48
 -11   3  10   70.61   10.96
   3   8  10   60.74   11.90
  -8  11 -10   52.19    9.99
  11  -3 -10   18.87    9.36
 -11   3  10   55.77    9.87
   8 -11   7    5.06   10.12
  11  -3  -7    4.59    9.43
  -3  -8  -7    5.05    6.95
  -8  11  -7   12.45    8.00
   3   8   7   16.04    9.77
 -11   3   7    3.38    7.38
 -11   3   7   11.20    7.76
  -8  11  -7   11.15    8.97
 -11   3   7    6.55    6.60
   3   8   4  772.28   32.52
  -3  -8  -4  859.95   29.83
  -8  11  -4  842.00   30.95
  11  -3  -4  844.76   35.71
   8 -11   4  810.42   36.73
  -8  11  -4  768.20   30.21
 -11   3   4  867.36   31.46
  11  -3  -4  846.60   30.94
 -11   3   4  798.72   30.60
  11  -3  -1    4.88    8.96
   8 -11   1   -6.99    9.42
  -8  11  -1    3.11    6.69
   3   8   1   -2.49    7.41
 -11   3   1    7.54    7.22
  -8  11  -1    8.44    6.75
  11  -3  -1   12.75    8.24
 -11   3   1   -1.11    7.26
  -8  11  -1    2.68    5.30
  -3  -8  -1   -0.92    6.63
   3   8  -2  172.97   13.95
  -8  11   2  166.81   12.77
  -3  -8   2  144.30   11.67
 -11   3  -2  185.05   13.81
  -8  11   2  176.63   11.77
   8 -11  -2  204.16   18.56
  11  -3   2  149.07   16.87
  11  -3   2  160.17   14.45
  -8  11   2  134.46    9.74
   3   8  -5   35.65    8.93
  -8  11   5   42.12    8.41
  -3  -8   5   35.67    7.90
  -8  11   5   34.23    6.84
  -8  11   5   32.81    6.36
  11  -3   5   39.98   10.70
   8 -11  -5   20.57   10.22
 -11   3  -5   23.35    8.13
  11  -3   5   28.50   10.78
  11  -3   8   74.26   12.80
   8 -11  -8   79.48   12.74
  -8  11   8   79.02    8.56
 -11   3  -8   66.04   10.60
  11  -3   8   73.60   12.29
  -8  11   8   90.51   10.63
   3   8  -8   79.09   10.71
  -3  -8   8   88.30   10.07
  11  -3  11    2.88    9.38
 -11   3 -11    1.23    8.28
  -3  -8  11   -3.00    7.24
  -8  11  11   -2.55    6.71
  11  -3  11    4.84   10.18
  -8  11  11    3.08    7.33
   3   8 -11    3.17    7.17
  -8  11  14  918.20   32.70
  -8  11  14  862.24   31.19
   3   8 -14  925.82   32.83
   3   8 -14  857.18   38.39
  -3  -8  14  910.38   35.44
  -3  -8  14  907.24   32.81
  11  -3  14  939.55   36.35
   8 -11 -14  843.23   34.57
 -11   3 -14  899.85   35.14
 -11   3 -17   32.53   11.14
  -3  -8  17   24.31    9.35
  11  -3  17   25.85   11.87
   8 -11 -17   12.96    9.92
  -3  -8  17   33.09   11.56
   3   8 -17   12.73    8.61
   3   8 -17   30.49   12.84
   3   8 -20   78.47   11.88
  -3  -8  20   72.24   11.79
  11  -2 -20   22.94   11.27
 -11   2  20   43.70   12.07
  -2  -9 -17  163.00   15.42
 -11   2  17  160.04   15.42
 -11   2  17  166.99   16.82
  11  -2 -17  150.00   14.83
 -11   2  17  130.59   14.87
  -2  -9 -17  169.27   16.28
  11  -2 -17  167.99   15.78
  -2  -9 -14   -4.74    8.78
 -11   2  14   -2.22    8.22
 -11   2  14    5.37    8.73
  -9  11 -14    4.67   11.42
 -11   2  14    3.70    8.55
  -2  -9 -14    4.24   10.05
  11  -2 -14    1.37   10.38
  11  -2 -11  149.31   16.22
 -11   2  11  139.83   13.74
 -11   2  11  159.01   12.68
  -2  -9 -11  119.76   12.31
 -11   2  11  143.57   14.37
  -9  11 -11  117.20   14.06
 -11   2   8  875.84   30.80
  -9  11  -8  838.23   32.25
  -9  11  -8  843.49   34.19
 -11   2   8  952.99   33.21
 -11   2   8  900.65   33.60
  -2  -9  -8  845.00   30.55
   2   9   8  824.70   35.64
  11  -2  -8  870.72   30.52
  11  -2  -8  796.87   35.49
  -9  11  -5  917.36   33.14
  11  -2  -5  887.56   32.65
  11  -2  -5  881.84   38.05
 -11   2   5  919.77   34.03
  -9  11  -5  965.38   34.71
  -2  -9  -5  984.68   31.99
   2   9   5  977.22   37.16
 -11   2   5  917.74   33.28
  11  -2  -2   13.73    7.93
  11  -2  -2   20.15   11.25
 -11   2   2   17.45    7.58
  -2  -9  -2   14.53    6.52
  -9  11  -2   12.08    7.47
   2   9   2    8.01    7.87
  -9  11  -2   13.28    7.31
  -9  11  -2   22.40    6.97
 -11   2   2   13.12    7.59
   2   9  -1  252.97   17.18
  -9  11   1  244.88   15.12
  11  -2   1  229.33   16.45
  -9  11   1  236.80   13.63
  11  -2   1  270.98   20.59
 -11   2  -1  238.50   16.18
  -2  -9   1  237.15   14.01
  -9  11   1  267.69   14.68
  11  -2   4   22.07   10.35
  -9  11   4   19.28    6.39
  -9  11   4   16.84    6.79
  -2  -9   4   16.70    6.78
   2   9  -4   21.60    8.21
  -9  11   4   15.87    6.97
 -11   2  -4    9.51    7.86
   2   9  -7  480.57   26.04
  -9  11   7  442.49   19.75
  -2  -9   7  473.85   20.23
  -9  11   7  492.12   20.96
   2   9  -7  447.49   22.47
  11  -2   7  454.19   25.19
  11  -2   7  497.10   26.57
 -11   2  -7  483.46   23.70
 -11   2 -10  497.29   24.00
  -2  -9  10  460.01   20.39
   2   9 -10  421.81   21.89
  -9  11  10  449.87   20.63
   2   9 -10  441.20   25.68
  -9  11  10  448.96   20.28
  11  -2  10  473.62   26.57
  11  -2  10  451.86   25.29
  -9  11  13 1199.12   38.65
   2   9 -13 1126.50   39.86
 -11   2 -13 1233.53   42.83
  -2  -9  13 1196.12   38.34
  11  -2  13 1239.31   43.73
  11  -2  13 1109.94   45.13
  -2  -9  13 1191.85   41.99
  11  -2  16   26.57   12.23
   9 -11 -16   65.98   12.87
   2   9 -16   41.03   10.21
  -2  -9  16   51.14   10.27
  -2  -9  16   37.64   10.73
   2   9 -16   34.40   12.17
  -9  11  16   53.79   10.80
 -11   2 -16   38.05   12.18
  -2  -9  16   41.45   11.34
  11  -2  16   55.89   12.01
  -2  -9  19   84.97   12.68
  -2  -9  19   76.11   11.90
   2   9 -19   79.17   11.93
 -11   1  18 1604.46   52.03
  -1 -10 -15   17.53   10.84
 -11   1  15   26.40   10.58
  11  -1 -15   15.28   10.76
 -11   1  15   17.35    9.95
 -10  11 -15    1.62   11.09
 -11   1  12  185.12   16.63
 -11   1  12  167.13   14.47
  11  -1 -12  185.15   17.53
 -11   1  12  174.17   14.65
  -1 -10 -12  185.75   14.12
  -1 -10 -12  144.94   16.01
   1  10  12  194.81   18.78
 -10  11 -12  199.75   18.53
 -11   1   9  198.85   14.88
 -10  11  -9  206.50   17.48
 -11   1   9  156.19   14.15
 -11   1   9  210.57   16.66
  11  -1  -9  170.71   17.34
  -1 -10  -9  217.29   18.71
  11  -1  -9  179.21   13.05
  -1 -10  -9  191.17   13.66
 -10  11  -6  154.42   13.41
   1  10   6  189.19   16.71
 -10  11  -6  191.90   15.65
 -11   1   6  155.41   13.54
  11  -1  -6  166.95   17.93
  11  -1  -6  184.63   14.06
 -11   1   6  172.16   14.79
  -1 -10  -6  195.69   18.24
  -1 -10  -6  191.73   12.66
  11  -1  -3  310.72   22.10
 -11   1   3  289.99   18.06
  11  -1  -3  273.49   17.28
 -10  11  -3  278.33   17.47
 -11   1   3  269.32   16.54
  -1 -10  -3  286.82   14.85
 -10  11  -3  260.62   16.19
   1  10   3  249.86   18.57
  11  -1   0 1872.93   64.78
 -10  11   0 2023.35   55.90
  11  -1   0 2090.73   60.51
 -10  11   0 2036.83   56.39
   1  10   0 1986.42   60.82
 -11   1   0 1963.93   57.43
 -10  11   0 1959.63   55.31
  -1 -10   0 2077.99   53.78
 -11   1   0 1999.11   59.54
 -10  11   3   49.07    8.12
  -1 -10   3   53.33    8.04
 -11   1  -3   30.33    9.32
  11  -1   3   62.34   11.55
 -10  11   3   55.12    8.74
   1  10  -3   54.31   10.59
 -10  11   3   52.00    8.71
   1  10  -6   13.91    8.54
 -10  11   6   22.26    7.59
   1  10  -6    7.75    9.63
  -1 -10   6   23.48    6.95
 -11   1  -6   18.26    9.62
  11  -1   6   21.64   11.39
  -1 -10   6   21.90   11.05
  11  -1   6   26.04   11.23
 -10  11   6   18.65    7.39
  -1 -10   9  272.19   20.70
  11  -1   9  265.42   20.92
   1  10  -9  258.54   18.01
   1  10  -9  320.71   22.43
 -11   1  -9  323.29   19.79
 -10  11   9  263.57   15.95
  11  -1   9  263.60   20.66
  -1 -10   9  273.09   14.81
  11  -1  12   99.07   15.21
 -10  11  12  111.55   11.88
  -1 -10  12   98.56   10.50
 -11   1 -12  104.47   13.81
   1  10 -12  130.59   16.61
  11  -1  12  108.23   14.54
  -1 -10  12  141.45   14.49
   1  10 -12  109.53   13.60
  -1 -10  12  128.22   15.26
   1  10 -15   24.23    9.74
  11  -1  15   34.38   11.35
 -11   1 -15   21.19   11.36
  -1 -10  15   36.31   11.33
  -1 -10  15   22.97    8.29
 -10  11  15   29.95    9.88
  -1 -10  15   34.35   10.99
  -1 -10  18 1158.85   39.14
 -10  11  18 1185.30   42.06
  11  -1  18 1230.82   43.37
  -1 -10  18 1231.44   43.08
   1  10 -18 1232.79   42.51
   0 -11 -16  103.73   15.20
  11   0 -16   86.42   13.66
  11   0 -13   70.70   13.56
   0 -11 -13   49.50   12.82
 -11  11 -13   81.81   15.04
 -11   0  13   56.50   11.31
 -11   0  13   60.58   11.98
   0  11  10   25.55   11.41
   0 -11 -10    1.69   11.07
 -11   0  10   22.09   10.23
   0 -11 -10    7.09    7.43
 -11  11 -10    7.51   10.61
  11   0 -10   27.97   12.06
 -11   0  10   15.35    9.86
 -11   0  10    7.74    8.24
 -11  11  -7  617.65   26.13
 -11  11  -7  597.93   28.37
 -11   0   7  668.24   26.52
   0 -11  -7  620.40   23.05
  11   0  -7  577.30   24.53
 -11   0   7  596.63   27.96
   0 -11  -7  565.92   31.02
  11   0  -7  601.37   31.58
 -11  11  -4  186.40   14.05
 -11  11  -4  185.80   15.90
 -11   0   4  209.33   14.79
   0 -11  -4  207.46   12.28
  11   0  -4  211.13   15.60
 -11   0   4  181.81   15.43
   0 -11  -4  185.75   19.21
  11   0  -4  221.04   20.83
 -11  11  -1  247.37   15.18
   0  11   1  236.19   18.47
 -11  11  -1  247.78   16.07
 -11  11  -1  277.98   16.65
 -11   0   1  264.07   16.41
   0 -11  -1  254.70   13.08
  11   0  -1  240.57   17.47
 -11   0   1  256.37   18.43
   0 -11  -1  276.01   22.58
  11   0  -1  253.94   21.88
  11   0   2  203.87   17.23
 -11  11   2  228.83   13.97
 -11  11   2  220.63   13.78
   0  11  -2  253.31   18.49
 -11   0  -2  210.72   16.82
   0 -11   2  222.24   12.01
 -11   0  -2  215.85   15.27
 -11  11   2  221.43   15.30
   0  11  -5   36.82   10.43
 -11  11   5   42.27    9.13
   0 -11   5   44.79    7.00
 -11   0  -5   30.20   10.38
   0  11  -5   43.52   11.75
  11   0   5   37.00   13.31
  11   0   5   32.34   11.58
   0 -11   5   32.73   12.38
   0  11  -8    4.06    9.06
  11   0   8    1.67   11.18
   0 -11   8    9.91    6.19
 -11   0  -8    4.26    9.18
   0  11  -8   13.16   10.87
   0 -11   8   -8.59   10.57
 -11  11   8   14.91    8.21
  11   0   8   -3.39   10.95
   0  11 -11  550.33   27.14
 -11  11  11  564.07   25.21
   0  11 -11  559.28   30.11
   0 -11  11  583.80   29.84
  11   0  11  547.57   28.92
  11   0  11  521.33   29.89
 -11   0 -11  552.79   28.08
   0 -11  11  527.83   25.58
 -11  11  14   43.45   10.71
   0 -11  14   48.94   12.40
   0 -11  14   58.16   11.73
  11   0  14   70.68   13.58
   0  11 -14   67.27   12.26
   1 -12  13   72.53   12.68
 -12  11  10  384.16   21.48
  11   1  10  365.52   24.23
   1 -12  10  426.41   26.50
   1 -12  10  386.84   21.29
  -1  12  -7  523.48   27.31
  11   1   7  500.06   29.42
 -12  11   7  593.33   25.62
  -1  12  -7  540.41   29.18
 -11  -1  -7  527.37   27.43
   1 -12   7  528.94   30.30
  11   1   7  518.51   29.01
  -1  12  -4 1489.46   51.31
 -11  -1  -4 1606.30   47.60
 -12  11   4 1614.74   48.87
  11   1   4 1561.38   53.07
  -1  12  -4 1609.04   53.31
   1 -12   4 1596.93   57.87
 -11  -1  -4 1433.73   50.69
 -11  -1  -1   51.22    9.47
 -12  11   1   51.05   10.41
   1 -12   1   24.29   13.21
  11   1   1   56.60   15.08
 -11  -1  -1   47.65   11.36
  11   1   1   49.96   11.41
  -1  12  -1   61.33   12.34
 -11  -1   2 1075.52   35.10
 -12  11  -2 1045.50   36.81
 -11  -1   2  999.63   38.81
 -12  11  -2  964.85   36.05
   1 -12  -2 1051.62   44.96
  11   1  -2 1038.22   37.60
  11   1  -2 1006.41   44.70
 -12  11  -2 1014.00   34.11
 -11  -1   5  372.61   19.35
 -11  -1   5  391.43   22.55
   1 -12  -5  353.47   25.40
 -12  11  -5  340.94   18.67
 -12  11  -5  383.20   22.16
  11   1  -5  369.76   20.18
  11   1  -5  366.14   26.06
   1 -12  -8  137.11   17.70
  11   1  -8  142.27   18.20
 -11  -1   8  119.55   12.72
 -12  11  -8  121.57   15.47
  11   1 -11  251.10   21.78
 -11  -1  11  236.23   16.46
 -11  -1  11  234.93   18.39
 -11  -1  14 1606.29   50.43
   2 -12  17   53.84   12.44
   2 -12  14   10.98   11.43
  10   2  14    6.01   11.02
   2 -12  14   15.10    9.94
  -2  12 -11  219.38   17.84
 -12  10  11  164.40   15.34
  -2  12 -11  197.79   19.42
   2 -12  11  218.49   15.83
  10   2  11  180.68   19.33
   2 -12  11  196.40   19.57
  10   2  11  181.63   17.71
   2 -12   8  437.83   26.65
  10   2   8  465.75   27.21
  -2  12  -8  415.22   25.10
 -12  10   8  422.25   22.28
  -2  12  -8  391.13   23.14
   2 -12   8  421.78   20.73
  10   2   8  377.96   24.75
 -10  -2  -8  444.10   24.63
 -12  10   5  467.32   22.85
  -2  12  -5  400.63   24.05
 -10  -2  -5  486.88   24.90
  -2  12  -5  395.09   23.48
  10   2   5  483.55   26.39
   2 -12   5  438.07   27.42
  10   2   5  455.35   27.40
  -2  12  -2   39.01   11.38
  10   2   2   52.04   11.43
 -12  10   2   32.89    8.62
 -10  -2  -2   20.47    9.62
 -10  -2  -2   50.87    9.15
 -12  10   2   44.20    9.95
 -12  10  -1   11.82    8.51
 -10  -2   1   20.09    7.55
  -2  12   1    9.14    9.52
   2 -12  -1   24.00   12.62
 -10  -2   1   22.96    9.18
 -12  10  -1   15.84    8.77
  10   2  -1   12.46    8.92
  -2  12   1   10.17   10.34
 -12  10  -1    7.96    6.40
  -2  12   4   -6.06   10.21
 -12  10  -4    9.86    7.09
  10   2  -4   12.04    8.48
 -10  -2   4   14.94    9.10
 -12  10  -4    7.79    9.29
   2 -12  -4   17.46   12.04
 -10  -2   4   13.34    7.58
 -12  10  -7  312.49   20.76
  10   2  -7  299.25   16.87
  10   2  -7  280.22   22.41
   2 -12  -7  269.75   22.15
  -2  12   7  318.01   21.39
 -10  -2   7  277.43   16.25
 -10  -2   7  262.72   19.26
 -10  -2  10   26.61    8.75
 -10  -2  10   27.05   10.87
  10   2 -10   38.94   13.47
   2 -12 -10   33.09   13.22
 -12  10 -10   27.79   11.33
  -2  12  10   31.47   12.23
 -10  -2  13  468.17   22.26
   2 -12 -13  414.33   26.36
  10   2 -13  453.89   26.56
 -10  -2  13  435.38   24.56
 -10  -2  16  140.52   14.97
  10   2 -16  133.25   15.72
   3 -12  18 1919.22   56.88
   9   3  18 1791.90   57.88
   3 -12  18 1911.74   59.45
   3 -12  15    1.51   10.35
   3 -12  15   -6.60    9.29
   9   3  15    2.87   10.59
 -12   9  12  429.74   23.28
   3 -12  12  433.00   25.94
   9   3  12  420.25   26.89
  -3  12 -12  412.87   25.78
  -3  12 -12  451.57   24.65
   3 -12  12  475.09   21.83
 -12   9   9  372.45   21.00
   3 -12   9  401.02   25.06
   9   3   9  335.00   23.91
  -3  12  -9  377.07   23.69
  -3  12  -9  342.08   21.60
   3 -12   9  395.03   18.93
  -3  12  -6  185.72   16.64
   9   3   6  224.17   19.26
 -12   9   6  172.63   15.01
   3 -12   6  216.91   19.52
   3 -12   6  198.41   13.07
 -12   9   3  113.21   11.47
  -3  12  -3  118.47   13.87
   9   3   3  129.94   14.65
  -9  -3  -3  112.52   10.38
 -12   9   3  111.36   12.71
  -3  12  -3  144.11   14.46
  -3  12   0 4336.81  109.52
 -12   9   0 4162.52  107.36
   3 -12   0 4225.40  118.29
   9   3   0 4380.33  110.22
  -3  12   0 4444.96  111.81
 -12   9   0 4296.53  108.86
  -9  -3   0 4272.11  102.80
 -12   9  -3   87.57   12.70
  -9  -3   3   67.48    9.00
   9   3  -3   81.02   10.85
 -12   9  -3   80.52    9.09
  -3  12   3   64.85   11.60
   3 -12  -3   68.38   13.93
  -3  12   3   82.86   11.58
  -9  -3   6  244.41   14.11
   3 -12  -6  257.75   21.19
  -3  12   6  233.99   18.42
 -12   9  -6  266.49   18.99
   9   3  -6  259.24   15.82
 -12   9  -9  357.69   23.21
   3 -12  -9  412.96   25.32
  -3  12   9  338.06   22.26
  -9  -3   9  354.65   17.41
  -9  -3  12  403.65   22.89
  -3  12  12  397.54   24.22
 -12   9 -12  366.07   24.00
  -9  -3  12  378.99   19.31
   3 -12 -12  397.92   24.73
  -9  -3  15   13.70    8.99
   9   3 -15   16.25   11.33
   3 -12 -15    1.53   10.47
   8   4  19   20.34   11.35
   4 -12  19   24.61   11.25
   4 -12  16  163.89   14.26
   4 -12  16  154.58   16.69
  -4  12 -13  368.39   22.43
   4 -12  13  388.13   23.64
   4 -12  13  353.54   18.21
  -8  -4 -13  410.96   23.30
  -4  12 -13  400.80   24.70
 -12   8  13  340.55   20.98
   4 -12  10  153.38   16.83
   4 -12  10  124.41   11.34
  -4  12 -10  112.49   15.05
  -8  -4 -10  122.67   14.09
 -12   8  10  135.48   14.05
  -8  -4  -7  459.49   23.86
  -4  12  -7  441.54   24.08
   4 -12   7  472.84   19.21
  -4  12  -7  473.10   25.28
 -12   8   7  461.59   22.80
   4 -12   7  441.64   26.64
 -12   8   7  435.48   18.97
   4 -12   4    0.72    5.84
  -8  -4  -4   -2.63    5.90
 -12   8   4   -4.80    8.26
  -8  -4  -4    2.59    8.35
 -12   8   4    0.94    7.61
  -4  12  -4    5.18    8.43
  -4  12  -4    9.37    9.40
   4 -12   4    3.59   11.07
 -12   8   4   -2.14    5.73
 -12   8   1   -4.82    8.35
  -8  -4  -1    3.79    5.56
 -12   8   1    3.45    5.70
 -12   8   1    6.71    7.80
  -4  12  -1   11.88    9.11
   8   4   1    1.29    8.40
  -4  12  -1    4.00    8.29
   8   4   1   -5.31    9.61
   4 -12   1    1.85   10.83
  -8  -4  -1    6.29    8.60
  -8  -4   2   45.19    6.93
  -4  12   2   37.45   10.28
   8   4  -2   31.81    9.11
 -12   8  -2   43.51    7.39
 -12   8  -2   45.34   10.63
  -4  12   2   36.01    9.05
   8   4  -2   35.76    9.78
   4 -12  -2   50.17   13.32
  -8  -4   2   23.86    9.02
   8   4  -5  786.47   29.33
  -4  12   5  812.95   29.37
  -8  -4   5  822.42   32.12
 -12   8  -5  803.47   33.17
  -4  12   5  776.83   32.58
  -8  -4   5  781.62   25.68
   4 -12  -5  729.98   35.45
   8   4  -5  778.36   28.94
  -8  -4   8  182.70   15.79
 -12   8  -8  193.05   17.47
  -4  12   8  201.66   16.99
   4 -12  -8  173.40   17.34
   8   4  -8  198.13   12.99
   8   4  -8  197.07   12.69
  -8  -4   8  167.29   11.63
 -12   8 -11  302.03   21.52
  -8  -4  11  284.65   15.53
  -4  12  11  289.71   20.57
  -8  -4  11  267.17   18.59
   4 -12 -11  294.37   21.07
  -8  -4  14    7.05    9.70
 -12   8 -14   -3.23   11.35
  -8  -4  14    4.69    7.38
   4 -12 -14    6.17    9.97
  -4  12  14    6.34    9.99
  -8  -4  14   -8.86    9.89
   4 -12 -17   -1.45   10.52
   7   5  20  262.68   19.13
   5 -12  17   55.94   11.77
 -12   7  17   30.17   10.02
   5 -12  14 1392.27   42.55
  -7  -5 -14 1435.26   49.59
   5 -12  14 1511.00   50.73
 -12   7  14 1391.58   47.63
  -5  12 -14 1409.55   51.32
 -12   7  14 1555.16   46.33
 -12   7  11  230.55   15.33
  -5  12 -11  232.76   17.89
  -7  -5 -11  284.84   19.32
  -5  12 -11  221.52   19.08
   5 -12  11  236.36   19.63
   5 -12  11  278.84   14.58
 -12   7  11  230.86   17.53
  -7  -5  -8   49.81   10.43
 -12   7   8   42.04   10.60
   5 -12   8   68.74    8.09
  -5  12  -8   53.52   11.26
   7   5   8   60.18   13.42
 -12   7   8   54.12    8.86
  -5  12  -8   39.40   11.41
   5 -12   8   57.40   12.92
  -5  12  -5  163.43   14.69
  -7  -5  -5  156.52    9.38
 -12   7   5  167.27   14.47
   5 -12   5  148.28   16.60
  -7  -5  -5  144.66   13.92
 -12   7   5  135.18   11.36
   7   5   5  142.16   15.24
  -5  12  -5  121.80   13.61
   5 -12   5  143.29    9.43
  -5  12  -2 1259.39   44.20
  -5  12  -2 1354.59   43.59
 -12   7   2 1311.41   39.43
  -7  -5  -2 1323.75   44.03
   5 -12   2 1352.56   36.19
   7   5   2 1320.51   44.85
  -7  -5  -2 1330.21   35.49
 -12   7   2 1368.00   44.24
  -5  12   1    6.42    8.23
   7   5  -1   14.00    8.09
  -7  -5   1   18.04    8.61
   5 -12  -1    7.31   10.87
 -12   7  -1    7.29    6.48
  -5  12   1   16.79    8.26
  -7  -5   1    9.86    5.06
  -5  12   4 2128.72   58.07
  -7  -5   4 2030.01   52.61
   5 -12  -4 2181.72   68.74
 -12   7  -4 2167.15   57.07
  -5  12   4 2105.67   62.45
   7   5  -4 2117.85   59.41
  -7  -5   4 2134.31   61.54
   7   5  -7  198.31   13.77
  -7  -5   7  189.47   11.15
   5 -12  -7  204.15   18.85
  -5  12   7  208.29   16.54
 -12   7  -7  235.12   14.15
   7   5  -7  190.09   12.99
  -7  -5   7  217.98   16.31
  -5  12  10  339.33   20.84
   7   5 -10  303.87   16.17
 -12   7 -10  305.94   17.30
   5 -12 -10  310.86   21.78
  -7  -5  10  348.30   15.76
  -7  -5  10  309.03   19.44
  -7  -5  13   90.91   12.31
 -12   7 -13   55.30   10.11
  -5  12  13   81.81   13.83
 -12   7 -13   81.19   13.89
   5 -12 -13   62.27   12.29
  -7  -5  13   83.47   13.06
  -5  12  16  524.72   28.11
   5 -12 -16  504.03   23.48
   5 -12 -16  552.92   27.78
   5 -12 -19  143.60   14.18
   6 -12  18   -7.14   10.65
 -12   6  18   -3.83   10.04
   6 -12  15  853.92   36.28
 -12   6  15  892.97   35.40
  -6  -6 -15  807.40   34.88
  -6  12 -15  885.32   36.35
  -6  12 -15  890.28   38.13
 -12   6  15  845.67   32.98
   6   6  12    3.69   10.77
  -6  12 -12   18.04    9.93
   6 -12  12    9.53   10.42
 -12   6  12   16.31    8.78
  -6  -6 -12   16.28    9.83
  -6  12 -12    1.55   10.03
 -12   6  12   20.85    9.50
   6   6   9  715.05   32.68
 -12   6   9  654.93   26.47
  -6  12  -9  670.10   30.43
   6 -12   9  617.50   21.41
  -6  12  -9  675.33   29.73
 -12   6   9  635.15   28.52
  -6  -6  -9  678.87   29.27
   6 -12   9  669.89   32.31
   6   6   6  612.61   28.96
  -6  12  -6  595.78   27.30
   6 -12   6  504.99   28.82
  -6  12  -6  563.97   26.56
  -6  -6  -6  573.76   26.20
 -12   6   6  615.49   26.76
  -6  -6  -6  598.40   17.97
 -12   6   6  613.95   24.46
   6 -12   6  578.58   18.67
  -6  12  -3   66.54   10.40
 -12   6   3   55.08    8.94
  -6  -6  -3   56.54    5.14
 -12   6   3   66.80   11.09
   6   6   3   59.35   10.96
  -6  12  -3   71.78   11.05
  -6  -6  -3   61.20   10.29
   6 -12   3   68.45    5.76
  -6  12   0  100.72   11.09
  -6  12   0   96.57   11.92
   6   6   0   73.52   11.43
 -12   6   0   97.02   11.80
  -6  -6   0   86.70    5.88
   6 -12   0   67.50   13.50
  -6  -6   0   97.79   11.54
 -12   6   0   81.73   10.00
   6 -12   0   90.24    6.05
  -6  -6   3 1152.44   39.79
  -6  -6   3 1187.41   30.56
  -6  12   3 1185.07   37.29
   6 -12  -3 1159.99   46.03
   6   6  -3 1185.82   39.53
 -12   6  -3 1158.16   37.16
  -6  12   3 1224.53   41.21
  -6  12   6  157.18   11.46
  -6  -6   6  166.24   14.16
 -12   6  -6  140.46   11.90
   6   6  -6  170.78   13.43
  12  -6   6  155.96   15.41
  -6  12   6  180.41   14.80
   6 -12  -6  168.19   17.39
  -6  -6   9  344.77   19.90
   6 -12  -9  330.81   22.55
  12  -6   9  365.53   23.30
   6   6  -9  367.80   18.05
 -12   6  -9  315.11   17.71
  -6  12   9  350.34   20.54
  -6  -6  12  783.09   31.63
   6 -12 -12  795.49   34.84
  -6  12  12  756.89   32.19
   6   6 -12  777.55   27.75
 -12   6 -12  786.46   30.04
  -6  -6  15  206.39   18.45
   6 -12 -15  226.47   18.72
  12  -6  15  207.28   20.01
  -6  -6  15  209.97   16.81
 -12   6 -15  208.59   16.33
  -6  12  15  216.94   18.18
  -6  12  18   39.02   12.01
   6 -12 -18   28.90   11.57
 -12   6 -18   37.94   11.37
   6 -12 -18   37.80   11.09
  -5  -7 -16  456.20   25.30
   7 -12  16  387.04   24.35
 -12   5  16  459.06   24.02
   7 -12  13   12.81   11.87
  -7  12 -13    3.17   10.84
   5   7  13    3.78   11.45
  -7  12 -13   -2.81    9.46
  -5  -7 -13    5.36    9.58
 -12   5  13    2.39    8.82
  -7  12 -10  167.28   16.24
   5   7  10  230.28   19.61
  -5  -7 -10  185.59   15.41
   7 -12  10  164.43   17.31
 -12   5  10  180.57   14.81
  -7  12 -10  178.26   15.70
  -7  12  -7  269.30   18.60
 -12   5   7  284.60   17.20
  -7  12  -7  299.58   19.44
   7 -12   7  294.90   21.84
   5   7   7  333.37   21.65
  -5  -7  -7  320.28   18.68
  -7  12  -4  865.87   33.99
  -5  -7  -4  921.28   33.41
  -7  12  -4  942.70   33.88
 -12   5   4  918.78   32.46
   7 -12   4  875.17   39.44
  12  -5  -4  877.98   38.15
   5   7   4  877.30   35.62
   5   7   1   16.73    8.98
  -7  12  -1   13.23    7.83
   7 -12   1    1.83   10.29
  -5  -7  -1   12.13    7.49
  12  -5  -1   12.00   10.29
 -12   5   1   16.31    7.65
  -7  12  -1    6.17    7.49
  12  -5   2  444.76   26.55
   7 -12  -2  466.23   27.91
  -5  -7   2  471.17   22.19
  12  -5   2  405.98   23.30
   5   7  -2  495.00   23.65
  -7  12   2  447.59   22.52
 -12   5  -2  491.31   21.91
  -7  12   2  476.37   20.73
  -5  -7   5   89.34   10.94
  -7  12   5   86.50   11.40
   5   7  -5   76.88   10.84
  -7  12   5   88.85    8.96
 -12   5  -5   68.99   10.22
   7 -12  -5   65.79   13.59
  12  -5   5   81.54   12.48
  -5  -7   8  132.68   12.77
 -12   5  -8  149.74   13.28
  12  -5   8  128.70   15.06
   5   7  -8  144.27   12.74
  -7  12   8  141.87   13.70
   7 -12  -8  133.05   16.37
  -5  -7  11   11.80    8.90
  -7  12  11   11.19    8.56
   5   7 -11    1.00    8.37
   7 -12 -11    9.84   10.27
 -12   5 -11    5.78    7.74
  12  -5  14 1146.76   44.91
 -12   5 -14 1171.64   40.26
  -7  12  14 1119.22   40.33
   5   7 -14 1087.83   36.36
  -5  -7  14 1069.03   39.26
   7 -12 -14 1121.63   43.15
  -7  12  17   82.29   12.90
   7 -12 -17   65.46   12.48
 -12   5 -17   64.74   12.51
  -5  -7  17   80.44   13.10
  -4  -8 -17  640.79   30.50
  -8  12 -14   35.59   12.40
 -12   4  14   65.72   11.95
 -12   4  14   59.70   11.19
  -4  -8 -14   79.52   12.71
   4   8  14   77.61   15.78
  -8  12 -14   61.83   11.90
   4   8  11 1296.67   48.67
  -8  12 -11 1215.08   43.95
  -4  -8 -11 1237.40   42.91
  -8  12 -11 1350.94   46.81
   8 -12  11 1368.68   49.17
 -12   4  11 1276.56   43.59
 -12   4  11 1288.48   43.33
  12  -4 -11 1293.14   46.80
  12  -4  -8  105.11   14.83
  -4  -8  -8  113.95   12.52
  -8  12  -8   99.14   13.33
 -12   4   8  124.87   13.04
  -8  12  -8  101.49   12.60
   4   8   8  101.81   13.90
   8 -12   8  101.78   14.93
 -12   4   8  105.46   12.91
  12  -4  -5    3.39   10.17
  -8  12  -5   -3.65    8.10
   4   8   5   -1.48    9.48
  -4  -8  -5   16.36    7.56
 -12   4   5    4.85    8.13
   8 -12   5   20.23   11.23
 -12   4   5    6.83    7.63
 -12   4   5   -0.73    6.47
  -8  12  -5    7.26    8.16
  -8  12  -2  533.61   24.71
 -12   4   2  517.84   24.61
  -8  12  -2  511.21   19.09
  -8  12  -2  506.80   23.23
  -4  -8  -2  573.59   24.17
   4   8   2  562.53   26.57
  12  -4  -2  512.86   24.81
 -12   4   2  526.63   24.01
  12  -4  -2  515.08   28.73
  -8  12   1  857.93   26.58
  -8  12   1  818.21   29.59
  12  -4   1  872.50   38.72
 -12   4  -1  885.32   32.57
  -4  -8   1  896.53   31.80
   4   8  -1  834.71   33.38
  -8  12   1  830.69   32.09
  12  -4   1  942.75   35.18
   8 -12  -1  835.91   38.86
  -8  12   4  849.14   31.51
   4   8  -4  818.93   31.95
  -8  12   4  846.32   27.79
 -12   4  -4  825.97   31.26
  -8  12   4  812.11   25.96
  -4  -8   4  825.34   30.49
   8 -12  -4  814.63   37.85
  12  -4   4  790.89   33.79
  12  -4   7  892.89   37.58
   8 -12  -7  895.95   39.55
 -12   4  -7  934.24   34.27
  -4  -8   7  916.44   32.95
  12  -4   7  933.59   38.88
   4   8  -7  891.22   33.55
  -8  12   7  967.88   34.09
  12  -4  10  584.78   30.28
 -12   4 -10  599.13   26.45
  -8  12  10  566.78   25.36
   4   8 -10  581.47   25.54
   8 -12 -10  506.98   28.98
  -4  -8  10  571.23   25.31
  12  -4  10  522.36   28.42
 -12   4 -13   -7.79    9.06
  -4  -8  13    4.32   10.05
  -4  -8  13   -4.59    8.60
   4   8 -13   -6.43    8.26
  -8  12  13    5.95    8.77
  -4  -8  16  158.40   14.64
   4   8 -16  151.39   13.99
 -12   4 -16  150.20   16.43
  12  -3 -15    7.03   11.23
  -3  -9 -15   -7.87   10.53
   3   9  12    9.14   11.99
  -9  12 -12    8.20    9.65
  -9  12 -12   15.47   10.44
  -3  -9 -12   10.84    9.33
 -12   3  12   -1.32    8.61
 -12   3  12    5.14    9.25
  12  -3 -12   13.67   11.00
  -9  12  -9    6.36    8.88
   3   9   9   -3.38   10.66
  -9  12  -9    7.08    9.42
 -12   3   9    8.40    7.60
  -3  -9  -9    1.11    8.19
 -12   3   9    7.63    8.87
 -12   3   9   -1.24    9.08
  12  -3  -9   -3.25   10.43
  -9  12  -6   51.82   10.04
   3   9   6   64.00   12.23
  -3  -9  -6   73.12   10.48
 -12   3   6   50.40    8.85
 -12   3   6   73.82   11.44
  12  -3  -6   68.58   13.69
  -9  12  -6   63.36   11.11
 -12   3   6   56.70   11.01
  -3  -9  -3   12.92    7.63
  -9  12  -3    9.97    8.36
 -12   3   3   15.75    9.09
  12  -3  -3   10.67   10.49
  -9  12  -3   17.27    6.81
 -12   3   3   19.23    8.71
  -9  12  -3   20.78    8.71
   3   9   3   21.83    9.33
  12  -3  -3   11.94    7.89
  -9  12   0 1089.50   34.09
 -12   3   0 1155.83   39.81
  -9  12   0 1127.65   36.91
  12  -3   0 1204.87   46.43
   3   9   0 1205.72   41.74
  -9  12   0 1162.49   38.88
  -3  -9   0 1144.28   37.18
 -12   3   0 1171.27   39.91
  12  -3   0 1144.47   40.74
  -9  12   3   21.45    6.96
   3   9  -3   36.35   10.12
  -9  12   3   16.08    8.40
  -3  -9   3   22.94    8.23
  -9  12   3   12.70    6.46
  12  -3   3   29.89   11.26
 -12   3  -3    4.87    8.99
   3   9  -6    7.48    9.25
  -9  12   6   21.01    8.72
  -3  -9   6   18.46    8.18
  -9  12   6   14.87    6.90
  12  -3   6   15.54   11.15
  12  -3   6    7.73   10.22
 -12   3  -6    3.74    8.48
  -9  12   9   15.93    8.36
   3   9  -9    8.40    8.69
  12  -3   9   13.13   11.89
  -9  12   9   20.48    7.94
  -3  -9   9   12.98    7.70
 -12   3  -9    6.51    8.54
  12  -3   9   23.45   11.38
   3   9 -12    5.91    8.71
  -3  -9  12   30.80   11.30
  12  -3  12   12.50   11.27
 -12   3 -12   12.27   10.68
  12  -3  12    4.67   10.86
  -3  -9  12   11.53    8.04
 -12   3 -15   62.09   13.18
   3   9 -15   44.53   10.91
  -3  -9  15   44.37   10.33
  12  -3  15   47.09   13.12
  -3  -9  18  488.61   25.36
  -3  -9  18  450.85   23.69
  12  -2 -16  173.93   16.99
  -2 -10 -16  153.27   15.65
 -12   2  13  850.88   33.13
 -12   2  13  778.94   30.86
  -2 -10 -13  774.33   35.00
  -2 -10 -13  753.75   31.02
  12  -2 -13  821.62   35.22
  -2 -10 -10  652.38   26.94
 -10  12 -10  625.61   28.62
 -10  12 -10  682.83   31.35
 -12   2  10  647.48   28.67
 -12   2  10  642.66   29.46
   2  10  10  615.90   32.20
  -2 -10 -10  695.62   32.79
  12  -2 -10  642.67   32.06
 -12   2  10  638.44   26.78
  12  -2  -7  356.54   19.32
   2  10   7  349.18   23.28
  12  -2  -7  337.21   24.24
 -12   2   7  301.59   17.89
 -10  12  -7  319.73   21.19
 -12   2   7  338.05   19.96
 -12   2   7  378.47   21.44
  -2 -10  -7  368.43   18.72
 -10  12  -7  342.90   20.09
 -10  12  -4  222.33   16.49
 -10  12  -4  241.26   17.10
 -10  12  -4  236.21   14.67
 -12   2   4  253.30   16.91
   2  10   4  233.10   18.63
  12  -2  -4  246.33   17.27
  12  -2  -4  267.28   21.47
 -12   2   4  234.29   17.27
  -2 -10  -4  244.09   15.38
 -12   2   1  193.06   15.12
 -10  12  -1  200.78   13.38
 -12   2   1  201.93   16.35
  -2 -10  -1  192.67   13.23
 -10  12  -1  180.56   14.04
  12  -2  -1  205.00   16.49
  12  -2  -1  211.30   19.88
 -10  12  -1  213.32   15.39
   2  10   1  183.57   16.42
 -12   2  -2   19.47    9.41
  -2 -10   2   21.79    7.47
   2  10  -2   15.35   10.17
 -10  12   2   23.75    8.77
  12  -2   2   15.54   10.54
 -12   2  -2    2.42    9.52
 -10  12   2   18.89    7.76
  12  -2   2   27.90   12.38
  12  -2   5 1180.88   46.02
 -12   2  -5 1117.46   40.84
  -2 -10   5 1110.01   35.55
 -10  12   5 1140.46   37.20
   2  10  -5 1082.73   40.41
 -10  12   5 1106.47   35.74
  12  -2   5 1165.43   43.33
  -2 -10   8 1104.32   35.73
 -12   2  -8 1119.21   40.89
  12  -2   8 1107.98   44.13
 -10  12   8 1111.95   36.05
 -10  12   8 1115.74   36.72
   2  10  -8 1148.10   40.45
  12  -2   8 1105.67   44.07
  -2 -10  11  224.77   15.33
 -12   2 -11  263.22   18.88
  12  -2  11  264.77   20.94
  12  -2  11  260.75   22.01
 -10  12  11  245.17   15.81
   2  10 -11  222.99   17.60
  -2 -10  11  234.30   20.14
  -2 -10  14  113.87   15.17
   2  10 -14   71.56   12.76
  12  -2  14   72.31   14.26
  -2 -10  14   72.44   10.86
   2  10 -17  105.92   14.27
 -12   1  14  103.95   13.74
  12  -1 -11  104.91   16.37
 -12   1  11   62.25   11.71
 -12   1  11  101.40   13.39
 -11  12 -11   92.00   13.05
 -12   1   8  188.02   16.90
 -12   1   8  211.52   16.10
 -11  12  -8  207.33   17.79
 -12   1   8  253.64   17.13
 -11  12  -8  190.55   16.12
  -1 -11  -8  228.06   14.96
  12  -1  -8  263.37   21.40
  -1 -11  -8  241.14   21.15
  -1 -11  -5  337.72   24.72
 -12   1   5  307.06   20.04
 -11  12  -5  308.90   18.52
   1  11   5  252.70   20.25
  12  -1  -5  304.68   23.63
 -11  12  -5  291.17   19.42
  -1 -11  -5  335.48   16.70
  12  -1  -5  292.80   18.54
 -12   1   5  307.00   18.89
   1  11   2   29.54   11.41
 -11  12  -2   21.29    8.69
  12  -1  -2   33.22   12.54
  -1 -11  -2   52.59   14.54
  -1 -11  -2   34.21    7.97
 -11  12  -2   15.82    8.67
 -12   1   2   31.10    9.75
 -11  12  -2   33.99    9.76
 -12   1   2   23.23    9.61
  12  -1  -2   26.60    9.94
  12  -1   1    4.20   10.09
  -1 -11   1    5.92   11.31
  -1 -11   1    1.53    6.49
 -12   1  -1   -1.17    8.79
 -11  12   1    4.86    7.80
 -12   1  -1    5.49    9.19
   1  11  -1    1.49    9.76
 -11  12   1   -2.00    7.79
  12  -1   1   -3.91   11.64
  12  -1   4  117.66   15.94
 -11  12   4  124.27   12.19
   1  11  -4  114.64   14.07
 -11  12   4  126.31   11.98
  -1 -11   4  125.51   17.11
  -1 -11   4  125.55   10.59
 -12   1  -4  148.47   15.26
   1  11  -7  274.98   22.09
 -12   1  -7  258.45   19.09
 -11  12   7  249.41   16.17
   1  11  -7  257.58   19.33
  12  -1   7  259.95   21.18
  12  -1   7  249.38   21.35
  -1 -11   7  289.28   22.54
  -1 -11  10  150.04   17.71
  12  -1  10  150.29   17.49
   1  11 -10  142.24   15.49
 -11  12  13  253.66   17.69
 -12   0   9  534.16   24.68
 -12   0   9  500.25   25.27
 -12  12  -9  499.81   25.05
 -12  12  -6  341.17   19.59
 -12   0   6  305.38   18.84
 -12  12  -6  347.04   21.76
  12   0  -3    7.46    9.83
 -12  12  -3   -1.05    9.14
 -12  12  -3   -1.12    9.10
 -12   0   3   -1.11    8.88
 -12  12  -3    3.60    9.64
  12   0   0   27.74   11.15
   0  12   0   17.43   10.70
 -12   0   0   25.64    9.60
 -12  12   0   27.26    9.31
  12   0   3  606.96   29.95
   0  12  -3  594.52   29.60
 -12   0  -3  600.96   26.70
 -12  12   3  615.54   26.04
 -12  12   6   55.37   10.59
 -12  12   9  261.74   18.07
   0 -12   9  344.25   20.64
   1 -13   8   -1.20   10.25
 -12  -1  -5  208.65   16.28
 -12  -1  -2   72.48   11.79
 -13  12   2   58.28   11.85
 -13  12  -1  142.57   14.53
 -12  -1   1  138.44   13.36
  12   1  -1  143.01   15.71
 -12  -1   4  131.25   13.33
 -12  -1   7  325.72   19.24
   2 -13  12   92.17   13.38
   2 -13   9  557.12   25.17
 -13  11   6    8.75    9.32
 -11  -2  -6    8.88    8.30
 -11  -2  -3   44.79    9.84
 -13  11   3   56.69   10.93
  -2  13  -3   78.69   14.09
  11   2   3   60.01   13.06
  11   2   0   32.90   11.24
 -13  11   0   41.25   10.77
 -11  -2   0   32.71    9.28
  11   2  -3  100.76   13.05
 -13  11  -3   95.85   13.04
 -11  -2   3  102.01   11.90
 -13  11  -3  103.80   13.91
 -13  11  -6   77.34   13.78
 -11  -2   6   48.35    9.52
 -11  -2   9  254.15   16.30
 -11  -2  12  132.32   13.57
   3 -13  10   38.06    9.85
   3 -13   7  326.98   17.52
 -13  10   7  295.55   19.50
  -3  13  -7  302.59   22.22
  10   3   7  300.81   23.11
  10   3   4  111.48   15.74
 -10  -3  -4   95.00   10.46
 -13  10   4   73.27   12.01
  -3  13  -4   72.81   13.32
   3 -13   4   54.64   14.85
   3 -13   1   -8.40   13.15
  -3  13  -1   -1.52   10.12
  10   3   1   16.78   10.07
 -13  10   1   10.20    9.18
 -10  -3  -1    7.34    7.07
  -3  13  -1   -1.39    9.37
 -13  10  -2   29.38   10.95
   3 -13  -2   29.55   13.12
 -10  -3   2   18.10    7.65
 -13  10  -2   40.28   10.50
  -3  13   2   27.88   10.75
  10   3  -2   24.72    9.89
   3 -13  -5  312.13   24.98
 -13  10  -5  282.37   20.37
 -10  -3   5  311.02   16.62
  10   3  -5  315.80   18.46
 -13  10  -8  149.45   16.96
 -10  -3   8  169.54   13.33
 -10  -3  11  153.36   13.22
 -13   9   8  122.12   14.51
   4 -13   8  127.55   17.18
   4 -13   8  116.24   11.22
  -9  -4  -8  116.59   14.52
   9   4   8   78.05   14.71
  -4  13  -8  111.44   15.86
  -4  13  -5  441.17   25.49
  -4  13  -5  486.34   25.99
   4 -13   5  506.65   30.23
  -9  -4  -5  488.30   25.51
   9   4   5  478.95   27.37
   4 -13   5  514.24   20.59
 -13   9   5  525.08   25.16
  -9  -4  -5  462.10   19.16
  -4  13  -2   10.30    9.65
  -9  -4  -2   11.13    9.19
   9   4   2   23.11   11.37
 -13   9   2   11.62    9.24
  -9  -4  -2   11.73    6.61
  -4  13  -2   10.69   10.41
  -4  13   1    1.48    9.90
  -4  13   1    3.72    8.80
  -9  -4   1   -1.38    8.61
   9   4  -1   -2.54    9.53
 -13   9  -1    3.83    9.30
  -9  -4   1    3.45    6.29
 -13   9  -1   -2.61    9.05
   4 -13  -1    4.12   12.13
   4 -13  -4   54.00   14.76
   9   4  -4   23.19    8.98
 -13   9  -4   41.24   11.82
  -9  -4   4   37.44   10.01
  -4  13   4   37.77   11.35
  -9  -4   4   31.35    7.31
  -4  13   7  234.37   19.27
   4 -13  -7  269.94   22.48
  -9  -4   7  227.75   17.84
  -9  -4   7  234.92   13.75
 -13   9  -7  244.95   19.87
   4 -13 -10  135.14   17.47
 -13   9 -10   97.61   15.11
   5 -13  12  284.13   22.43
  -5  13  -9  353.93   23.56
   5 -13   9  356.02   24.94
  -8  -5  -9  346.74   22.06
 -13   8   9  359.71   21.26
  -5  13  -9  318.05   21.48
  -5  13  -6   -1.43   10.84
   5 -13   6   17.12   11.41
  -5  13  -6    5.78    9.61
 -13   8   6   -3.92    9.05
  -8  -5  -6   -1.39    8.77
  -5  13  -3  362.88   22.13
   8   5   3  329.33   22.12
  -5  13  -3  371.50   22.30
  -8  -5  -3  390.07   22.24
 -13   8   3  381.29   21.53
 -13   8   0  111.21   13.43
   8   5   0  106.85   13.62
  -5  13   0   93.95   13.10
  -8  -5   0  103.74   13.68
   5 -13   0  106.69   16.78
   8   5   0  103.85   13.41
  -5  13   0  113.29   13.22
  -5  13   3   31.46   10.37
   8   5  -3   22.56    9.78
  -8  -5   3   31.96   10.34
   5 -13  -3   53.82   13.64
   8   5  -3   18.52    8.60
  -5  13   3   27.01    9.15
   5 -13  -6  279.61   22.54
  -5  13   6  257.45   19.86
  -8  -5   6  290.82   19.23
   8   5  -6  313.90   17.64
 -13   8  -9  314.48   22.40
  -8  -5   9  272.62   19.62
   5 -13  -9  258.20   21.96
  -5  13   9  273.66   19.80
   5 -13 -12   12.07   11.38
   6 -13  13   -1.68   11.80
 -13   7  10    1.36    9.55
 -13   7  10    6.24    8.47
   6 -13  10   -5.32   11.80
  -7  -6 -10    1.42    9.47
  -6  13 -10  -10.93   12.23
   7   6   7  160.70   17.97
  -6  13  -7  151.14   15.56
 -13   7   7  188.09   16.15
  -6  13  -7  182.51   17.06
   6 -13   7  197.95   19.79
 -13   7   7  196.73   14.14
  -7  -6  -7  184.67   16.07
   7   6   4  349.20   22.21
  -6  13  -4  323.07   20.57
   6 -13   4  381.20   25.86
  -6  13  -4  364.57   21.84
 -13   7   4  345.48   20.87
 -13   7   4  380.49   18.55
  -7  -6  -4  385.50   21.79
   6 -13   1  134.09   17.47
   7   6   1  119.34   13.86
  -6  13  -1  121.36   13.88
  -6  13  -1  122.61   13.40
  -7  -6  -1  125.76   13.35
 -13   7   1  104.33   10.95
 -13   7   1  125.75   13.97
   6 -13  -2   -1.99   11.31
  -7  -6   2    2.55    8.59
 -13   7  -2   -0.93    7.77
  -6  13   2    8.20    8.42
   7   6  -2   -6.25    8.94
  -6  13   2   -7.33    8.19
 -13   7  -5   37.35    8.63
  -7  -6   5   21.89   10.20
   6 -13  -5   38.57   13.55
  -6  13   5   30.18   10.13
   7   6  -5   22.76    9.20
  -7  -6   8   69.38   11.32
  -6  13   8   90.78   12.85
   7   6  -8   71.83   10.53
   6 -13  -8   60.55   14.52
  -7  -6  11  248.71   18.40
  -6  13  11  234.54   18.86
   6 -13 -11  227.97   20.40
   7 -13  14   -6.72   11.49
 -13   6  14    2.45    9.89
  -6  -7 -11  165.39   16.00
 -13   6  11  147.44   13.88
   7 -13  11  130.88   16.98
  -7  13 -11  148.92   16.66
   6   7  11  128.50   17.27
   6   7   8  668.70   33.94
   7 -13   8  732.36   36.08
 -13   6   8  857.61   33.09
 -13   6   8  788.61   30.25
  -7  13  -8  711.56   32.33
  -7  13  -8  751.52   32.57
  -6  -7  -8  802.60   32.53
   6   7   5  759.16   34.50
  -7  13  -5  790.94   32.59
  -6  -7  -5  814.89   32.43
   7 -13   5  816.45   37.89
 -13   6   5  854.08   33.41
 -13   6   5  793.71   30.31
  -7  13  -5  805.47   33.32
  -6  -7  -2   13.63    9.03
  -7  13  -2   -1.16    9.82
 -13   6   2    9.19    9.40
   6   7   2   10.00    9.64
  -7  13  -2   20.14    9.43
 -13   6   2   16.70    8.13
   7 -13  -1  213.07   20.86
  -7  13   1  187.99   14.71
  -6  -7   1  237.38   16.87
 -13   6  -1  246.33   15.86
 -13   6  -1  224.75   17.29
  -7  13   1  212.32   16.76
   6   7  -1  210.06   16.92
  -6  -7   4    9.78    8.80
  -7  13   4   -7.86   10.04
   6   7  -4   -1.22    8.50
   7 -13  -4    1.96   11.73
 -13   6  -4   -4.22    7.78
 -13   6  -7  267.29   16.91
   6   7  -7  243.32   17.02
  13  -6   7  210.35   18.67
   7 -13  -7  218.84   21.22
  -7  13   7  250.47   18.29
  -6  -7   7  231.63   16.82
 -13   6 -10  534.67   24.34
  13  -6  10  468.23   27.88
   6   7 -10  493.77   23.01
   7 -13 -10  479.19   28.92
  -7  13  10  474.75   25.25
  -6  -7  10  507.74   25.02
 -13   6 -13  607.17   27.64
  -7  13  13  700.43   30.60
   7 -13 -13  601.45   31.60
  -6  -7  13  688.31   29.80
 -13   5  12   37.96   10.99
  -5  -8 -12   38.05   10.82
   8 -13  12   14.32   13.05
 -13   5   9   21.62    9.76
  -8  13  -9   53.35   11.47
   5   8   9   47.83   12.93
 -13   5   9   40.01   11.06
  -5  -8  -9   45.09   10.96
  -8  13  -9   33.91   11.92
   8 -13   9   33.74   14.00
 -13   5   6   -1.32    9.19
  -8  13  -6   13.25   10.32
  -8  13  -6   16.19   10.40
   5   8   6   14.63   10.89
 -13   5   6    5.87    8.61
   8 -13   6    9.77   11.83
  -5  -8  -6    1.23    8.51
   5   8   3   46.58   11.65
  -8  13  -3   61.67   11.68
  -5  -8  -3   66.38   11.34
 -13   5   3   63.35   10.91
  13  -5  -3   72.09   14.30
  -8  13  -3   52.99   10.67
 -13   5   3   57.75   11.50
  -8  13   0  334.06   20.26
  13  -5   0  316.02   24.32
  -8  13   0  321.30   18.26
   8 -13   0  321.02   25.14
 -13   5   0  299.06   19.92
   5   8   0  324.87   20.68
  -5  -8   0  336.78   19.59
 -13   5   0  342.63   19.11
  -5  -8   3   54.10   10.06
 -13   5  -3   29.99    9.30
   8 -13  -3   22.07   12.89
  -8  13   3   40.12    9.55
   5   8  -3   53.62   11.42
  13  -5   3   50.48   12.52
  -5  -8   6    1.16    8.23
 -13   5  -6    7.07    8.64
   8 -13  -6    1.94   12.04
  -8  13   6    4.99    8.81
   5   8  -6    9.83    8.95
  13  -5   6   16.05   11.63
  -5  -8   9   32.09    9.99
 -13   5  -9   47.73   10.56
   8 -13  -9   25.99   12.29
  -8  13   9   47.30   11.66
   5   8  -9   49.16   10.27
  13  -5   9   53.31   13.77
 -13   5 -12   -2.57    9.73
   5   8 -12   -5.59    9.33
  -8  13  12   -2.62    9.13
  -5  -8  12   -3.70    9.08
   8 -13 -12   -5.35   12.19
  -4  -9 -13   11.98   10.37
  -4  -9 -10   62.21   11.61
 -13   4  10   56.44   11.84
  13  -4 -10   63.73   13.98
  -9  13 -10   76.20   14.19
   4   9   7  323.92   23.25
  -9  13  -7  349.84   22.07
 -13   4   7  328.71   20.39
  13  -4  -7  377.69   25.53
  -9  13  -7  327.73   21.16
 -13   4   7  336.85   20.46
  -4  -9  -7  341.55   20.15
   4   9   4  862.64   36.99
  -9  13  -4  885.51   34.10
 -13   4   4  900.89   34.87
   9 -13   4  916.03   42.17
  13  -4  -4  841.25   39.29
  -9  13  -4  944.80   35.32
 -13   4   4  845.09   33.85
  -4  -9  -4  947.07   33.77
   4   9   1  306.13   21.54
  13  -4  -1  347.53   21.15
  -9  13  -1  356.70   20.99
  13  -4  -1  360.61   25.44
  -9  13  -1  381.49   19.63
 -13   4   1  390.60   21.50
  -4  -9  -1  343.62   19.64
   9 -13   1  373.67   26.78
 -13   4   1  385.53   21.59
  13  -4   2    5.84   10.11
   9 -13  -2   -2.08   11.69
 -13   4  -2    1.25    9.13
  -4  -9   2    2.16    8.19
  13  -4   2   -5.80   11.70
  -9  13   2   -2.41    8.41
   4   9  -2   -2.79    9.40
 -13   4  -2    6.60    9.38
  13  -4   5   14.89   11.93
   9 -13  -5   26.36   14.60
  -4  -9   5   16.23    8.40
 -13   4  -5   23.98   10.04
  13  -4   5   27.01   12.12
  -9  13   5   23.63    9.63
   4   9  -5   19.86    9.94
  -4  -9   8   20.91    9.01
 -13   4  -8   15.66   10.28
  13  -4   8   15.47   11.36
   4   9  -8   28.10   10.61
  -9  13   8   14.29    9.23
  13  -4   8   17.69   12.90
  -9  13  11  462.69   23.06
   4   9 -11  416.00   22.96
 -13   4 -11  395.83   22.97
  -4  -9  11  446.40   22.54
   4   9 -14  224.48   16.98
  -4  -9  14  238.97   17.43
  -3 -10 -14  339.89   20.94
  -3 -10 -11   -9.61    9.97
 -13   3   8  161.92   15.55
 -10  13  -8  129.16   16.05
 -10  13  -8  164.48   15.79
  -3 -10  -8  146.85   14.23
  -3 -10  -5   -1.06    8.24
 -10  13  -5    5.10    9.62
 -13   3   5   -4.02    9.87
 -13   3   5    1.29    9.55
 -10  13  -5    7.60    9.23
   3  10   5    1.66   10.83
  13  -3  -5    1.89   11.47
   3  10   2  291.18   21.50
  13  -3  -2  303.87   20.45
 -10  13  -2  335.78   19.40
  -3 -10  -2  309.92   17.71
 -13   3   2  340.06   20.67
  13  -3  -2  270.63   23.24
 -10  13  -2  312.16   19.59
 -13   3   2  323.19   19.93
  13  -3   1   -3.99   12.78
  -3 -10   1   -5.99    8.87
 -13   3  -1    3.99    9.74
  13  -3   1    8.67   11.14
 -10  13   1    9.34    8.99
   3  10  -1   -5.93    9.64
 -13   3  -1    1.31    9.47
 -10  13   4  457.01   22.83
   3  10  -4  409.07   23.80
  13  -3   4  498.85   26.69
 -13   3  -4  462.78   24.68
  -3 -10   4  466.39   21.62
   3  10  -7    6.87   10.08
 -10  13   7    9.93    8.68
  -3 -10   7   17.06    8.52
 -13   3  -7    8.29   10.18
   3  10 -10  307.75   20.41
  -3 -10  10  322.92   18.42
   3  10 -13    3.88   10.49
  -3 -10  13    1.07    8.62
 -11  13  -6   33.65   11.44
 -11  13  -6   30.08   10.32
  13  -2  -6   26.78   10.03
 -11  13  -3  272.52   18.33
  13  -2  -3  255.67   18.75
 -11  13  -3  274.60   18.24
 -13   2   3  282.98   18.66
 -13   2   0  396.22   23.22
 -13   2   0  367.88   21.92
   2  11   0  417.16   24.86
 -11  13   0  386.92   20.93
  13  -2   0  407.01   23.96
  13  -2   3   -1.56   11.48
 -13   2  -3    1.30   10.13
   2  11  -3    7.58   10.64
 -11  13   3    7.55    8.45
   2  11  -6  162.45   16.61
  13  -1  -4 1112.30   40.19
 -12  13  -4 1134.67   39.30
  13  -1  -1   -5.58   10.34
  -4  14   0   35.64   11.60
  10   4   0   23.39   10.95
 -14  10  -3  116.31   15.41
  -5  14  -4 1045.24   40.12
  -5  14  -1   10.62   10.23
   9   5   1   11.44   10.48
   9   5  -2  829.38   33.50
 -14   9  -2  867.54   35.70
 -14   9  -5   87.87   14.93
  -6  14  -5   47.11   12.56
   8   6   5   94.10   16.14
  -6  14  -2  132.52   14.73
   8   6   2  131.89   16.37
   8   6  -1  510.61   26.32
   8   6  -1  509.50   25.85
   7   7   6   62.13   14.18
  -7  14  -6   61.45   13.46
  -7  14  -3  118.80   14.40
  -7  -7  -3  149.96   15.75
   7   7   0 1248.24   44.50
  -7  -7   0 1220.89   43.30
  -7  -7   3   11.99   10.05
   7   7  -3    3.99    9.53
 -14   6  10  482.08   24.54
  -6  -8  -7  281.25   19.94
 -14   6   7  329.67   19.95
  -8  14  -7  298.98   21.16
  -6  -8  -4   73.54   12.51
   6   8   4   86.97   15.02
  -8  14  -4   72.55   12.64
 -14   6   4   81.67   12.45
 -14   6   1  334.04   19.60
  -6  -8  -1  328.29   20.65
   6   8   1  351.00   22.54
  -8  14   2   16.64   10.52
   6   8  -2    9.92   11.16
 -14   6  -2   10.42    9.07
  -6  -8   2    1.27    9.63
   6   8  -5  667.65   29.17
 -14   6  -5  604.19   26.91
  -6  -8   5  623.57   28.19
  -8  14   5  598.71   28.90
 -14   6  -8 1097.86   39.03
  -5  -9  -8  291.40   19.67
  -9  14  -5   -1.32   10.37
  -5  -9  -5    1.26    9.32
 -14   5   5    1.27    9.32
 -14   5   2  162.41   15.28
  -5  -9  -2  175.60   15.69
   5   9   2  170.94   17.28
  -9  14   1   18.77   10.71
   5   9  -1    8.97   10.56
  -5  -9   1   -1.20    9.61
 -14   5  -1   11.35   10.27
  -9  14   4  195.76   16.70
 -14   5  -4  165.07   15.46
  -5  -9   4  166.79   15.43
   5   9  -4  172.87   16.51
  -5  -9   7   20.42   10.20
 -14   5  -7   32.58   10.67
  -9  14   7   22.45   10.71
   5   9  -7    9.41   10.32
  -4 -10  -9  581.06   27.01
  -4 -10  -6 1152.86   39.57
 -10  14  -6 1093.28   41.24
  -4 -10  -3   41.35   10.41
  -4 -10   0   -3.36    9.49
 -10  14   0   11.65   10.34
   4  10  -3 1119.56   42.43
 -10  14   3 1137.18   40.10
  -4 -10   3 1121.11   38.60
   4  10  -6  192.78   17.78
 -10  14   6  183.69   16.39
  -4 -10   6  176.67   14.86
  -4 -10   9  339.98   19.88
   7   8  -1  104.90   15.59
   0   0   0    0.00    0.00


TITL L6CSO2a_try1_finalized in R-3
REM R-3 (#148 in standard setting)
CELL 0.71073   9.647745   9.647745  21.752409  90.0000  90.0000 120.0000
ZERR    4.00   0.000200   0.000200   0.000524   0.0000   0.0000   0.0000
LATT  3
SYMM -y, x-y, z
SYMM -x+y,-x, z
SFAC Li O Co Se
UNIT 24.00 48.00 4.00 16.00
REM  CrysAlisPro recorded range (K): Min=99.9; max=100.2; aver:100.0
TEMP -173
SIZE 0.02 0.04 0.08
TREF
HKLF 4
END
_computing_structure_solution     'SHELXT 2018/2 (Sheldrick, 2018)'
;
_shelx_hkl_checksum                58133
_olex2_submission_special_instructions  'No special instructions were received'
_oxdiff_exptl_absorpt_empirical_details
;
Empirical correction (ABSPACK) includes:
- Absorption correction using spherical harmonics
- Frame scaling
;
_oxdiff_exptl_absorpt_empirical_full_max  1.335
_oxdiff_exptl_absorpt_empirical_full_min  0.855
